170484936
  -OEChem-11262106393D

 27 29  0     0  0  0  0  0  0999 V2000
    3.9020   -2.7270   20.9760 O   0  0  0  0  0  0  0  0  0  0  0  0
    3.7710   -0.5900   20.1470 N   0  0  0  0  0  0  0  0  0  0  0  0
    3.3480    1.1720   21.6950 N   0  0  0  0  0  0  0  0  0  0  0  0
    3.5030   -1.0700   22.5180 C   0  0  0  0  0  0  0  0  0  0  0  0
    3.7360   -1.5260   21.2110 C   0  0  0  0  0  0  0  0  0  0  0  0
    4.0270   -1.0460   18.8320 C   0  0  0  0  0  0  0  0  0  0  0  0
    3.3130    0.3020   22.7320 C   0  0  0  0  0  0  0  0  0  0  0  0
    3.5660    0.7790   20.4400 C   0  0  0  0  0  0  0  0  0  0  0  0
    3.4550   -1.9590   23.6040 C   0  0  0  0  0  0  0  0  0  0  0  0
    3.0750    0.7690   24.0290 C   0  0  0  0  0  0  0  0  0  0  0  0
    3.0150   -1.5750   18.0250 C   0  0  0  0  0  0  0  0  0  0  0  0
    5.3420   -0.9830   18.3530 C   0  0  0  0  0  0  0  0  0  0  0  0
    3.2250   -1.4850   24.8970 C   0  0  0  0  0  0  0  0  0  0  0  0
    3.0290   -0.1210   25.1050 C   0  0  0  0  0  0  0  0  0  0  0  0
    3.3240   -2.0310   16.7430 C   0  0  0  0  0  0  0  0  0  0  0  0
    5.6460   -1.4390   17.0700 C   0  0  0  0  0  0  0  0  0  0  0  0
    4.6350   -1.9640   16.2660 C   0  0  0  0  0  0  0  0  0  0  0  0
    3.5864    1.5145   19.6371 H   0  0  0  0  0  0  0  0  0  0  0  0
    3.5975   -3.0206   23.4373 H   0  0  0  0  0  0  0  0  0  0  0  0
    2.9252    1.8288   24.2004 H   0  0  0  0  0  0  0  0  0  0  0  0
    1.9969   -1.6305   18.3930 H   0  0  0  0  0  0  0  0  0  0  0  0
    6.1267   -0.5782   18.9819 H   0  0  0  0  0  0  0  0  0  0  0  0
    3.1991   -2.1736   25.7338 H   0  0  0  0  0  0  0  0  0  0  0  0
    2.8401    0.2509   26.1055 H   0  0  0  0  0  0  0  0  0  0  0  0
    2.5419   -2.4397   16.1135 H   0  0  0  0  0  0  0  0  0  0  0  0
    6.6635   -1.3854   16.6999 H   0  0  0  0  0  0  0  0  0  0  0  0
    4.8669   -2.3208   15.2690 H   0  0  0  0  0  0  0  0  0  0  0  0
  1  5  2  0  0  0  0
  2  5  1  0  0  0  0
  2  6  1  0  0  0  0
  2  8  1  0  0  0  0
  3  7  1  0  0  0  0
  3  8  2  0  0  0  0
  4  5  1  0  0  0  0
  4  7  2  0  0  0  0
  4  9  1  0  0  0  0
  6 11  2  0  0  0  0
  6 12  1  0  0  0  0
  7 10  1  0  0  0  0
  8 18  1  0  0  0  0
  9 13  2  0  0  0  0
  9 19  1  0  0  0  0
 10 14  2  0  0  0  0
 10 20  1  0  0  0  0
 11 15  1  0  0  0  0
 11 21  1  0  0  0  0
 12 16  2  0  0  0  0
 12 22  1  0  0  0  0
 13 14  1  0  0  0  0
 13 23  1  0  0  0  0
 14 24  1  0  0  0  0
 15 17  2  0  0  0  0
 15 25  1  0  0  0  0
 16 17  1  0  0  0  0
 16 26  1  0  0  0  0
 17 27  1  0  0  0  0
M  END
> <PUBCHEM_COMPOUND_ID_TYPE>
0

> <PUBCHEM_TOTAL_CHARGE>
0

> <PUBCHEM_SUBSTANCE_ID>
170484936

> <PUBCHEM_SUBSTANCE_VERSION>
1

> <PUBCHEM_EXT_DATASOURCE_NAME>
Shanghai Institute of Organic Chemistry

> <PUBCHEM_EXT_DATASOURCE_REGID>
4eh2

> <PUBCHEM_SUBSTANCE_COMMENT>
PDB code 4eh2, binding affinity data from PDBbind-CN database: IC50=692uM

> <PUBCHEM_SUBSTANCE_SYNONYM>
4eh2

> <PUBCHEM_XREF_EXT_ID>
4eh2

> <PUBCHEM_EXT_DATASOURCE_URL>
http://www.sioc-ccbg.ac.cn/

> <PUBCHEM_EXT_SUBSTANCE_URL>
http://www.pdbbind-cn.org/quickpdb.asp?quickpdb=4eh2

> <PUBCHEM_CID_ASSOCIATIONS>
785275  1

> <PUBCHEM_CONFORMER_ID>
0A2964C800010001

> <PUBCHEM_COORDINATE_TYPE>
2
3
4

$$$$
170484943
  -OEChem-11262106393D

 43 46  0     1  0  0  0  0  0999 V2000
   -2.6490   -2.2260   11.0760 F   0  0  0  0  0  0  0  0  0  0  0  0
   -2.2710   -2.2520   13.3410 F   0  0  0  0  0  0  0  0  0  0  0  0
   -0.7320   -2.8730   11.9580 F   0  0  0  0  0  0  0  0  0  0  0  0
   -1.0550  -11.7710   11.6880 O   0  0  0  0  0  0  0  0  0  0  0  0
   -4.4440   -8.6590   11.1110 O   0  0  0  0  0  0  0  0  0  0  0  0
   -4.4740   -8.7830   13.3580 N   0  0  0  0  0  0  0  0  0  0  0  0
   -2.0590  -10.6750   13.3890 N   0  0  0  0  0  0  0  0  0  0  0  0
   -4.4430  -11.2030   14.1000 C   0  0  1  0  0  0  0  0  0  0  0  0
   -3.0780   -9.4080   15.2660 C   0  0  2  0  0  0  0  0  0  0  0  0
   -3.9440  -10.6830   15.4740 C   0  0  0  0  0  0  0  0  0  0  0  0
   -5.1980  -10.1050   13.3220 C   0  0  0  0  0  0  0  0  0  0  0  0
   -3.2320  -11.6110   13.2460 C   0  0  0  0  0  0  0  0  0  0  0  0
   -4.0250   -8.2990   14.7000 C   0  0  0  0  0  0  0  0  0  0  0  0
   -2.0090   -9.6800   14.3440 C   0  0  0  0  0  0  0  0  0  0  0  0
   -0.8650   -8.8660   14.4110 C   0  0  0  0  0  0  0  0  0  0  0  0
   -1.0150  -10.8700   12.5330 C   0  0  0  0  0  0  0  0  0  0  0  0
   -4.1120   -8.1800   12.1960 C   0  0  0  0  0  0  0  0  0  0  0  0
    0.2080   -9.0460   13.5370 C   0  0  0  0  0  0  0  0  0  0  0  0
    0.1300  -10.0640   12.5890 C   0  0  0  0  0  0  0  0  0  0  0  0
   -3.5000   -6.9090   12.1970 C   0  0  0  0  0  0  0  0  0  0  0  0
   -2.1180   -6.6960   12.1680 C   0  0  0  0  0  0  0  0  0  0  0  0
   -4.3520   -5.7920   12.1940 C   0  0  0  0  0  0  0  0  0  0  0  0
   -1.6220   -5.3760   12.1520 C   0  0  0  0  0  0  0  0  0  0  0  0
   -3.8640   -4.4820   12.1890 C   0  0  0  0  0  0  0  0  0  0  0  0
   -2.4830   -4.2570   12.1730 C   0  0  0  0  0  0  0  0  0  0  0  0
   -2.0040   -2.9220   12.1490 C   0  0  0  0  0  0  0  0  0  0  0  0
   -5.1106  -12.0440   14.2876 H   0  0  0  0  0  0  0  0  0  0  0  0
   -2.6264   -9.0843   16.2038 H   0  0  0  0  0  0  0  0  0  0  0  0
   -3.3434  -11.4540   15.9567 H   0  0  0  0  0  0  0  0  0  0  0  0
   -4.8009  -10.4403   16.1024 H   0  0  0  0  0  0  0  0  0  0  0  0
   -6.1747   -9.9700   13.7868 H   0  0  0  0  0  0  0  0  0  0  0  0
   -5.2781  -10.4201   12.2816 H   0  0  0  0  0  0  0  0  0  0  0  0
   -2.9096  -12.5968   13.5812 H   0  0  0  0  0  0  0  0  0  0  0  0
   -3.5437  -11.5914   12.2017 H   0  0  0  0  0  0  0  0  0  0  0  0
   -3.5086   -7.3423   14.6213 H   0  0  0  0  0  0  0  0  0  0  0  0
   -4.8741   -8.1302   15.3623 H   0  0  0  0  0  0  0  0  0  0  0  0
   -0.8149   -8.0773   15.1617 H   0  0  0  0  0  0  0  0  0  0  0  0
    1.0874   -8.4045   13.5947 H   0  0  0  0  0  0  0  0  0  0  0  0
    0.9540  -10.2324   11.8956 H   0  0  0  0  0  0  0  0  0  0  0  0
   -1.4309   -7.5421   12.1579 H   0  0  0  0  0  0  0  0  0  0  0  0
   -5.4302   -5.9522   12.1956 H   0  0  0  0  0  0  0  0  0  0  0  0
   -0.5443   -5.2151   12.1226 H   0  0  0  0  0  0  0  0  0  0  0  0
   -4.5560   -3.6398   12.1975 H   0  0  0  0  0  0  0  0  0  0  0  0
  1 26  1  0  0  0  0
  2 26  1  0  0  0  0
  3 26  1  0  0  0  0
  4 16  2  0  0  0  0
  5 17  2  0  0  0  0
  6 11  1  0  0  0  0
  6 13  1  0  0  0  0
  6 17  1  0  0  0  0
  7 12  1  0  0  0  0
  7 14  1  0  0  0  0
  7 16  1  0  0  0  0
  8 10  1  0  0  0  0
  8 11  1  0  0  0  0
  8 12  1  0  0  0  0
  8 27  1  0  0  0  0
  9 10  1  0  0  0  0
  9 13  1  0  0  0  0
  9 14  1  0  0  0  0
  9 28  1  0  0  0  0
 10 29  1  0  0  0  0
 10 30  1  0  0  0  0
 11 31  1  0  0  0  0
 11 32  1  0  0  0  0
 12 33  1  0  0  0  0
 12 34  1  0  0  0  0
 13 35  1  0  0  0  0
 13 36  1  0  0  0  0
 14 15  2  0  0  0  0
 15 18  1  0  0  0  0
 15 37  1  0  0  0  0
 16 19  1  0  0  0  0
 17 20  1  0  0  0  0
 18 19  2  0  0  0  0
 18 38  1  0  0  0  0
 19 39  1  0  0  0  0
 20 21  2  0  0  0  0
 20 22  1  0  0  0  0
 21 23  1  0  0  0  0
 21 40  1  0  0  0  0
 22 24  2  0  0  0  0
 22 41  1  0  0  0  0
 23 25  2  0  0  0  0
 23 42  1  0  0  0  0
 24 25  1  0  0  0  0
 24 43  1  0  0  0  0
 25 26  1  0  0  0  0
M  END
> <PUBCHEM_COMPOUND_ID_TYPE>
0

> <PUBCHEM_TOTAL_CHARGE>
0

> <PUBCHEM_SUBSTANCE_ID>
170484943

> <PUBCHEM_SUBSTANCE_VERSION>
1

> <PUBCHEM_EXT_DATASOURCE_NAME>
Shanghai Institute of Organic Chemistry

> <PUBCHEM_EXT_DATASOURCE_REGID>
4eh9

> <PUBCHEM_SUBSTANCE_COMMENT>
PDB code 4eh9, binding affinity data from PDBbind-CN database: IC50=5453uM

> <PUBCHEM_SUBSTANCE_SYNONYM>
4eh9

> <PUBCHEM_XREF_EXT_ID>
4eh9

> <PUBCHEM_EXT_DATASOURCE_URL>
http://www.sioc-ccbg.ac.cn/

> <PUBCHEM_EXT_SUBSTANCE_URL>
http://www.pdbbind-cn.org/quickpdb.asp?quickpdb=4eh9

> <PUBCHEM_CID_ASSOCIATIONS>
66563668  1

> <PUBCHEM_CONFORMER_ID>
0A2964CF00010001

> <PUBCHEM_COORDINATE_TYPE>
2
3
4

$$$$
170484942
  -OEChem-11262106393D

 30 31  0     0  0  0  0  0  0999 V2000
    1.2740   -1.9980  -11.7820 O   0  0  0  0  0  0  0  0  0  0  0  0
    4.9960   -5.0640  -11.5330 O   0  0  0  0  0  0  0  0  0  0  0  0
    1.0120   -3.3950  -11.8050 C   0  0  0  0  0  0  0  0  0  0  0  0
    0.1670   -3.6810  -12.8540 C   0  0  0  0  0  0  0  0  0  0  0  0
    2.6080   -1.8580  -11.6800 C   0  0  0  0  0  0  0  0  0  0  0  0
    4.6920   -2.8520  -11.1030 C   0  0  0  0  0  0  0  0  0  0  0  0
    3.3320   -2.9530  -11.2350 C   0  0  0  0  0  0  0  0  0  0  0  0
    3.2260   -0.6620  -12.0170 C   0  0  0  0  0  0  0  0  0  0  0  0
    5.3260   -1.6590  -11.4280 C   0  0  0  0  0  0  0  0  0  0  0  0
    5.3680   -3.9630  -10.6800 C   0  0  0  0  0  0  0  0  0  0  0  0
   -0.3890   -4.9550  -12.9420 C   0  0  0  0  0  0  0  0  0  0  0  0
   -0.1150   -2.6930  -13.7970 C   0  0  0  0  0  0  0  0  0  0  0  0
    4.5940   -0.5730  -11.8870 C   0  0  0  0  0  0  0  0  0  0  0  0
   -1.2310   -5.2170  -14.0100 C   0  0  0  0  0  0  0  0  0  0  0  0
   -0.9690   -2.9670  -14.8490 C   0  0  0  0  0  0  0  0  0  0  0  0
   -1.5250   -4.2320  -14.9540 C   0  0  0  0  0  0  0  0  0  0  0  0
    1.9475   -3.9402  -11.9303 H   0  0  0  0  0  0  0  0  0  0  0  0
    0.5445   -3.6946  -10.8670 H   0  0  0  0  0  0  0  0  0  0  0  0
    2.8239   -3.8862  -10.9922 H   0  0  0  0  0  0  0  0  0  0  0  0
    2.6429    0.1861  -12.3758 H   0  0  0  0  0  0  0  0  0  0  0  0
    6.4076   -1.5754  -11.3215 H   0  0  0  0  0  0  0  0  0  0  0  0
    5.1129   -4.1868   -9.6442 H   0  0  0  0  0  0  0  0  0  0  0  0
    6.4432   -3.7922  -10.7337 H   0  0  0  0  0  0  0  0  0  0  0  0
   -0.1691   -5.7191  -12.1964 H   0  0  0  0  0  0  0  0  0  0  0  0
    0.3375   -1.7057  -13.7047 H   0  0  0  0  0  0  0  0  0  0  0  0
    5.1043    0.3548  -12.1458 H   0  0  0  0  0  0  0  0  0  0  0  0
   -1.6712   -6.2086  -14.1150 H   0  0  0  0  0  0  0  0  0  0  0  0
   -1.2019   -2.1984  -15.5860 H   0  0  0  0  0  0  0  0  0  0  0  0
   -2.1977   -4.4596  -15.7809 H   0  0  0  0  0  0  0  0  0  0  0  0
    5.4606   -5.8558  -11.2525 H   0  0  0  0  0  0  0  0  0  0  0  0
  1  3  1  0  0  0  0
  1  5  1  0  0  0  0
  2 10  1  0  0  0  0
  2 30  1  0  0  0  0
  3  4  1  0  0  0  0
  3 17  1  0  0  0  0
  3 18  1  0  0  0  0
  4 11  2  0  0  0  0
  4 12  1  0  0  0  0
  5  7  1  0  0  0  0
  5  8  2  0  0  0  0
  6  7  2  0  0  0  0
  6  9  1  0  0  0  0
  6 10  1  0  0  0  0
  7 19  1  0  0  0  0
  8 13  1  0  0  0  0
  8 20  1  0  0  0  0
  9 13  2  0  0  0  0
  9 21  1  0  0  0  0
 10 22  1  0  0  0  0
 10 23  1  0  0  0  0
 11 14  1  0  0  0  0
 11 24  1  0  0  0  0
 12 15  2  0  0  0  0
 12 25  1  0  0  0  0
 13 26  1  0  0  0  0
 14 16  2  0  0  0  0
 14 27  1  0  0  0  0
 15 16  1  0  0  0  0
 15 28  1  0  0  0  0
 16 29  1  0  0  0  0
M  END
> <PUBCHEM_COMPOUND_ID_TYPE>
0

> <PUBCHEM_TOTAL_CHARGE>
0

> <PUBCHEM_SUBSTANCE_ID>
170484942

> <PUBCHEM_SUBSTANCE_VERSION>
1

> <PUBCHEM_EXT_DATASOURCE_NAME>
Shanghai Institute of Organic Chemistry

> <PUBCHEM_EXT_DATASOURCE_REGID>
4eh8

> <PUBCHEM_SUBSTANCE_COMMENT>
PDB code 4eh8, binding affinity data from PDBbind-CN database: IC50=6247uM

> <PUBCHEM_SUBSTANCE_SYNONYM>
4eh8

> <PUBCHEM_XREF_EXT_ID>
4eh8

> <PUBCHEM_EXT_DATASOURCE_URL>
http://www.sioc-ccbg.ac.cn/

> <PUBCHEM_EXT_SUBSTANCE_URL>
http://www.pdbbind-cn.org/quickpdb.asp?quickpdb=4eh8

> <PUBCHEM_CID_ASSOCIATIONS>
74341  1

> <PUBCHEM_CONFORMER_ID>
0A2964CE00010001

> <PUBCHEM_COORDINATE_TYPE>
2
3
4

$$$$
170484941
  -OEChem-11262106393D

 27 28  0     0  0  0  0  0  0999 V2000
    3.4920   -1.2610   20.5020 O   0  0  0  0  0  0  0  0  0  0  0  0
    0.4020    2.0170   24.6780 O   0  0  0  0  0  0  0  0  0  0  0  0
    1.6410    0.9010   22.8560 C   0  0  0  0  0  0  0  0  0  0  0  0
    2.8870   -0.1280   21.0210 C   0  0  0  0  0  0  0  0  0  0  0  0
    2.2690   -0.2140   22.2770 C   0  0  0  0  0  0  0  0  0  0  0  0
    1.6310    2.1200   22.1730 C   0  0  0  0  0  0  0  0  0  0  0  0
    2.8680    1.0970   20.3490 C   0  0  0  0  0  0  0  0  0  0  0  0
    0.9700    0.7770   24.2360 C   0  0  0  0  0  0  0  0  0  0  0  0
    2.2440    2.2090   20.9190 C   0  0  0  0  0  0  0  0  0  0  0  0
    4.0260   -1.3130   19.2220 C   0  0  0  0  0  0  0  0  0  0  0  0
    5.3050   -0.7910   18.9530 C   0  0  0  0  0  0  0  0  0  0  0  0
    3.3050   -1.9310   18.1850 C   0  0  0  0  0  0  0  0  0  0  0  0
    5.8460   -0.8530   17.6630 C   0  0  0  0  0  0  0  0  0  0  0  0
    3.8380   -2.0030   16.8950 C   0  0  0  0  0  0  0  0  0  0  0  0
    5.1040   -1.4610   16.6370 C   0  0  0  0  0  0  0  0  0  0  0  0
    2.2762   -1.1629   22.8133 H   0  0  0  0  0  0  0  0  0  0  0  0
    1.1500    2.9934   22.6134 H   0  0  0  0  0  0  0  0  0  0  0  0
    3.3439    1.1854   19.3724 H   0  0  0  0  0  0  0  0  0  0  0  0
    1.7312    0.4777   24.9565 H   0  0  0  0  0  0  0  0  0  0  0  0
    0.1656    0.0458   24.1565 H   0  0  0  0  0  0  0  0  0  0  0  0
    2.2347    3.1567   20.3806 H   0  0  0  0  0  0  0  0  0  0  0  0
    5.8807   -0.3335   19.7576 H   0  0  0  0  0  0  0  0  0  0  0  0
    2.3227   -2.3573   18.3888 H   0  0  0  0  0  0  0  0  0  0  0  0
    6.8312   -0.4344   17.4574 H   0  0  0  0  0  0  0  0  0  0  0  0
    3.2718   -2.4783   16.0940 H   0  0  0  0  0  0  0  0  0  0  0  0
    5.5174   -1.5117   15.6297 H   0  0  0  0  0  0  0  0  0  0  0  0
   -0.0038    1.8929   25.5391 H   0  0  0  0  0  0  0  0  0  0  0  0
  1  4  1  0  0  0  0
  1 10  1  0  0  0  0
  2  8  1  0  0  0  0
  2 27  1  0  0  0  0
  3  5  2  0  0  0  0
  3  6  1  0  0  0  0
  3  8  1  0  0  0  0
  4  5  1  0  0  0  0
  4  7  2  0  0  0  0
  5 16  1  0  0  0  0
  6  9  2  0  0  0  0
  6 17  1  0  0  0  0
  7  9  1  0  0  0  0
  7 18  1  0  0  0  0
  8 19  1  0  0  0  0
  8 20  1  0  0  0  0
  9 21  1  0  0  0  0
 10 11  2  0  0  0  0
 10 12  1  0  0  0  0
 11 13  1  0  0  0  0
 11 22  1  0  0  0  0
 12 14  2  0  0  0  0
 12 23  1  0  0  0  0
 13 15  2  0  0  0  0
 13 24  1  0  0  0  0
 14 15  1  0  0  0  0
 14 25  1  0  0  0  0
 15 26  1  0  0  0  0
M  END
> <PUBCHEM_COMPOUND_ID_TYPE>
0

> <PUBCHEM_TOTAL_CHARGE>
0

> <PUBCHEM_SUBSTANCE_ID>
170484941

> <PUBCHEM_SUBSTANCE_VERSION>
1

> <PUBCHEM_EXT_DATASOURCE_NAME>
Shanghai Institute of Organic Chemistry

> <PUBCHEM_EXT_DATASOURCE_REGID>
4eh7

> <PUBCHEM_SUBSTANCE_COMMENT>
PDB code 4eh7, binding affinity data from PDBbind-CN database: IC50=520uM

> <PUBCHEM_SUBSTANCE_SYNONYM>
4eh7

> <PUBCHEM_XREF_EXT_ID>
4eh7

> <PUBCHEM_EXT_DATASOURCE_URL>
http://www.sioc-ccbg.ac.cn/

> <PUBCHEM_EXT_SUBSTANCE_URL>
http://www.pdbbind-cn.org/quickpdb.asp?quickpdb=4eh7

> <PUBCHEM_CID_ASSOCIATIONS>
26295  1

> <PUBCHEM_CONFORMER_ID>
0A2964CD00010001

> <PUBCHEM_COORDINATE_TYPE>
2
3
4

$$$$
170484940
  -OEChem-11262106393D

 25 26  0     0  0  0  0  0  0999 V2000
    3.2940   -1.7520   20.5820 O   0  0  0  0  0  0  0  0  0  0  0  0
    4.1370    0.0020   19.3980 N   0  0  0  0  0  0  0  0  0  0  0  0
    2.7970    2.6310   22.3740 N   0  0  0  0  0  0  0  0  0  0  0  0
    4.4660   -0.6880   18.3050 C   0  0  0  0  0  0  0  0  0  0  0  0
    3.3550    0.4420   21.6510 C   0  0  0  0  0  0  0  0  0  0  0  0
    3.5890   -0.5550   20.4850 C   0  0  0  0  0  0  0  0  0  0  0  0
    3.4990   -1.3670   17.5540 C   0  0  0  0  0  0  0  0  0  0  0  0
    5.8040   -0.7050   17.9200 C   0  0  0  0  0  0  0  0  0  0  0  0
    3.5350    0.0260   22.9760 C   0  0  0  0  0  0  0  0  0  0  0  0
    3.8700   -2.0740   16.4210 C   0  0  0  0  0  0  0  0  0  0  0  0
    6.1590   -1.4030   16.7760 C   0  0  0  0  0  0  0  0  0  0  0  0
    5.2030   -2.0850   16.0340 C   0  0  0  0  0  0  0  0  0  0  0  0
    2.9910    1.7720   21.3820 C   0  0  0  0  0  0  0  0  0  0  0  0
    3.3260    0.9530   23.9960 C   0  0  0  0  0  0  0  0  0  0  0  0
    2.9500    2.2590   23.6460 C   0  0  0  0  0  0  0  0  0  0  0  0
    4.3121    1.0068   19.4061 H   0  0  0  0  0  0  0  0  0  0  0  0
    2.4534   -1.3396   17.8606 H   0  0  0  0  0  0  0  0  0  0  0  0
    6.5577   -0.1797   18.5067 H   0  0  0  0  0  0  0  0  0  0  0  0
    3.8313   -0.9978   23.2043 H   0  0  0  0  0  0  0  0  0  0  0  0
    3.1232   -2.6154   15.8403 H   0  0  0  0  0  0  0  0  0  0  0  0
    7.2006   -1.4168   16.4550 H   0  0  0  0  0  0  0  0  0  0  0  0
    2.8670    2.1006   20.3501 H   0  0  0  0  0  0  0  0  0  0  0  0
    5.5020   -2.6332   15.1406 H   0  0  0  0  0  0  0  0  0  0  0  0
    3.4517    0.6700   25.0411 H   0  0  0  0  0  0  0  0  0  0  0  0
    2.7781    2.9902   24.4359 H   0  0  0  0  0  0  0  0  0  0  0  0
  1  6  2  0  0  0  0
  2  4  1  0  0  0  0
  2  6  1  0  0  0  0
  2 16  1  0  0  0  0
  3 13  1  0  0  0  0
  3 15  2  0  0  0  0
  4  7  2  0  0  0  0
  4  8  1  0  0  0  0
  5  6  1  0  0  0  0
  5  9  1  0  0  0  0
  5 13  2  0  0  0  0
  7 10  1  0  0  0  0
  7 17  1  0  0  0  0
  8 11  2  0  0  0  0
  8 18  1  0  0  0  0
  9 14  2  0  0  0  0
  9 19  1  0  0  0  0
 10 12  2  0  0  0  0
 10 20  1  0  0  0  0
 11 12  1  0  0  0  0
 11 21  1  0  0  0  0
 12 23  1  0  0  0  0
 13 22  1  0  0  0  0
 14 15  1  0  0  0  0
 14 24  1  0  0  0  0
 15 25  1  0  0  0  0
M  END
> <PUBCHEM_COMPOUND_ID_TYPE>
0

> <PUBCHEM_TOTAL_CHARGE>
0

> <PUBCHEM_SUBSTANCE_ID>
170484940

> <PUBCHEM_SUBSTANCE_VERSION>
1

> <PUBCHEM_EXT_DATASOURCE_NAME>
Shanghai Institute of Organic Chemistry

> <PUBCHEM_EXT_DATASOURCE_REGID>
4eh6

> <PUBCHEM_SUBSTANCE_COMMENT>
PDB code 4eh6, binding affinity data from PDBbind-CN database: IC50=3471uM

> <PUBCHEM_SUBSTANCE_SYNONYM>
4eh6

> <PUBCHEM_XREF_EXT_ID>
4eh6

> <PUBCHEM_EXT_DATASOURCE_URL>
http://www.sioc-ccbg.ac.cn/

> <PUBCHEM_EXT_SUBSTANCE_URL>
http://www.pdbbind-cn.org/quickpdb.asp?quickpdb=4eh6

> <PUBCHEM_CID_ASSOCIATIONS>
74463  1

> <PUBCHEM_CONFORMER_ID>
0A2964CC00010001

> <PUBCHEM_COORDINATE_TYPE>
2
3
4

$$$$
170484939
  -OEChem-11262106393D

 27 28  0     0  0  0  0  0  0999 V2000
   -4.9490   -0.5080  -21.0230 O   0  0  0  0  0  0  0  0  0  0  0  0
   -3.8890   -1.2210  -22.8970 O   0  0  0  0  0  0  0  0  0  0  0  0
   -3.4070    3.0520  -23.5500 N   0  0  0  0  0  0  0  0  0  0  0  0
   -4.8100   -0.9990  -18.6240 C   0  0  0  0  0  0  0  0  0  0  0  0
   -4.3460   -1.2160  -19.9150 C   0  0  0  0  0  0  0  0  0  0  0  0
   -4.0120   -1.3510  -17.5390 C   0  0  0  0  0  0  0  0  0  0  0  0
   -6.0650   -0.4210  -18.4230 C   0  0  0  0  0  0  0  0  0  0  0  0
   -3.5140    1.0640  -22.2980 C   0  0  0  0  0  0  0  0  0  0  0  0
   -4.4750   -1.1260  -16.2460 C   0  0  0  0  0  0  0  0  0  0  0  0
   -6.5260   -0.1930  -17.1280 C   0  0  0  0  0  0  0  0  0  0  0  0
   -4.1190   -0.3170  -22.0930 C   0  0  0  0  0  0  0  0  0  0  0  0
   -5.7260   -0.5470  -16.0400 C   0  0  0  0  0  0  0  0  0  0  0  0
   -2.5570    1.5410  -21.4040 C   0  0  0  0  0  0  0  0  0  0  0  0
   -3.9320    1.8480  -23.3750 C   0  0  0  0  0  0  0  0  0  0  0  0
   -2.0270    2.8040  -21.6190 C   0  0  0  0  0  0  0  0  0  0  0  0
   -2.4860    3.5230  -22.7180 C   0  0  0  0  0  0  0  0  0  0  0  0
   -4.4653   -2.2901  -20.1203 H   0  0  0  0  0  0  0  0  0  0  0  0
   -3.2765   -0.9589  -19.9167 H   0  0  0  0  0  0  0  0  0  0  0  0
   -3.0372   -1.7970  -17.7001 H   0  0  0  0  0  0  0  0  0  0  0  0
   -6.6800   -0.1499  -19.2735 H   0  0  0  0  0  0  0  0  0  0  0  0
   -3.8608   -1.4019  -15.3965 H   0  0  0  0  0  0  0  0  0  0  0  0
   -7.4992    0.2562  -16.9664 H   0  0  0  0  0  0  0  0  0  0  0  0
   -6.0794   -0.3708  -15.0305 H   0  0  0  0  0  0  0  0  0  0  0  0
   -2.2351    0.9395  -20.5616 H   0  0  0  0  0  0  0  0  0  0  0  0
   -4.6811    1.4742  -24.0636 H   0  0  0  0  0  0  0  0  0  0  0  0
   -1.2791    3.2179  -20.9523 H   0  0  0  0  0  0  0  0  0  0  0  0
   -2.0745    4.5087  -22.9026 H   0  0  0  0  0  0  0  0  0  0  0  0
  1  5  1  0  0  0  0
  1 11  1  0  0  0  0
  2 11  2  0  0  0  0
  3 14  1  0  0  0  0
  3 16  2  0  0  0  0
  4  5  1  0  0  0  0
  4  6  2  0  0  0  0
  4  7  1  0  0  0  0
  5 17  1  0  0  0  0
  5 18  1  0  0  0  0
  6  9  1  0  0  0  0
  6 19  1  0  0  0  0
  7 10  2  0  0  0  0
  7 20  1  0  0  0  0
  8 11  1  0  0  0  0
  8 13  1  0  0  0  0
  8 14  2  0  0  0  0
  9 12  2  0  0  0  0
  9 21  1  0  0  0  0
 10 12  1  0  0  0  0
 10 22  1  0  0  0  0
 12 23  1  0  0  0  0
 13 15  2  0  0  0  0
 13 24  1  0  0  0  0
 14 25  1  0  0  0  0
 15 16  1  0  0  0  0
 15 26  1  0  0  0  0
 16 27  1  0  0  0  0
M  END
> <PUBCHEM_COMPOUND_ID_TYPE>
0

> <PUBCHEM_TOTAL_CHARGE>
0

> <PUBCHEM_SUBSTANCE_ID>
170484939

> <PUBCHEM_SUBSTANCE_VERSION>
1

> <PUBCHEM_EXT_DATASOURCE_NAME>
Shanghai Institute of Organic Chemistry

> <PUBCHEM_EXT_DATASOURCE_REGID>
4eh5

> <PUBCHEM_SUBSTANCE_COMMENT>
PDB code 4eh5, binding affinity data from PDBbind-CN database: IC50=818uM

> <PUBCHEM_SUBSTANCE_SYNONYM>
4eh5

> <PUBCHEM_XREF_EXT_ID>
4eh5

> <PUBCHEM_EXT_DATASOURCE_URL>
http://www.sioc-ccbg.ac.cn/

> <PUBCHEM_EXT_SUBSTANCE_URL>
http://www.pdbbind-cn.org/quickpdb.asp?quickpdb=4eh5

> <PUBCHEM_CID_ASSOCIATIONS>
7191  1

> <PUBCHEM_CONFORMER_ID>
0A2964CB00010001

> <PUBCHEM_COORDINATE_TYPE>
2
3
4

$$$$
170484938
  -OEChem-11262106393D

 29 30  0     0  0  0  0  0  0999 V2000
    2.9850   -2.1820   20.0790 O   0  0  0  0  0  0  0  0  0  0  0  0
    2.8790   -0.0170   20.7460 N   0  0  0  0  0  0  0  0  0  0  0  0
    2.1730    2.0310   22.7960 C   0  0  0  0  0  0  0  0  0  0  0  0
    1.3370    0.7370   22.7150 C   0  0  0  0  0  0  0  0  0  0  0  0
    2.5070    2.5040   21.3730 C   0  0  0  0  0  0  0  0  0  0  0  0
    2.0420   -0.4240   21.9530 C   0  0  0  0  0  0  0  0  0  0  0  0
    3.2540    1.4290   20.5250 C   0  0  0  0  0  0  0  0  0  0  0  0
    3.3360   -1.0150   19.8870 C   0  0  0  0  0  0  0  0  0  0  0  0
    4.2060   -0.7650   18.6270 C   0  0  0  0  0  0  0  0  0  0  0  0
    5.5440   -0.3560   18.7280 C   0  0  0  0  0  0  0  0  0  0  0  0
    3.6610   -0.9630   17.3530 C   0  0  0  0  0  0  0  0  0  0  0  0
    6.2990   -0.1050   17.5710 C   0  0  0  0  0  0  0  0  0  0  0  0
    4.4320   -0.7120   16.2050 C   0  0  0  0  0  0  0  0  0  0  0  0
    5.7540   -0.2840   16.3010 C   0  0  0  0  0  0  0  0  0  0  0  0
    3.1046    1.8338   23.3467 H   0  0  0  0  0  0  0  0  0  0  0  0
    1.5968    2.8097   23.3172 H   0  0  0  0  0  0  0  0  0  0  0  0
    1.1225    0.3988   23.7395 H   0  0  0  0  0  0  0  0  0  0  0  0
    0.3929    0.9666   22.1994 H   0  0  0  0  0  0  0  0  0  0  0  0
    3.1439    3.3981   21.4427 H   0  0  0  0  0  0  0  0  0  0  0  0
    1.5680    2.7617   20.8613 H   0  0  0  0  0  0  0  0  0  0  0  0
    1.2644   -1.1196   21.6046 H   0  0  0  0  0  0  0  0  0  0  0  0
    2.7042   -0.9403   22.6636 H   0  0  0  0  0  0  0  0  0  0  0  0
    4.3282    1.5274   20.7403 H   0  0  0  0  0  0  0  0  0  0  0  0
    3.0699    1.6589   19.4652 H   0  0  0  0  0  0  0  0  0  0  0  0
    5.9977   -0.2330   19.7048 H   0  0  0  0  0  0  0  0  0  0  0  0
    2.6396   -1.3115   17.2513 H   0  0  0  0  0  0  0  0  0  0  0  0
    7.3241    0.2341   17.6674 H   0  0  0  0  0  0  0  0  0  0  0  0
    3.9892   -0.8543   15.2258 H   0  0  0  0  0  0  0  0  0  0  0  0
    6.3435   -0.0951   15.4111 H   0  0  0  0  0  0  0  0  0  0  0  0
  1  8  2  0  0  0  0
  2  6  1  0  0  0  0
  2  7  1  0  0  0  0
  2  8  1  0  0  0  0
  3  4  1  0  0  0  0
  3  5  1  0  0  0  0
  3 15  1  0  0  0  0
  3 16  1  0  0  0  0
  4  6  1  0  0  0  0
  4 17  1  0  0  0  0
  4 18  1  0  0  0  0
  5  7  1  0  0  0  0
  5 19  1  0  0  0  0
  5 20  1  0  0  0  0
  6 21  1  0  0  0  0
  6 22  1  0  0  0  0
  7 23  1  0  0  0  0
  7 24  1  0  0  0  0
  8  9  1  0  0  0  0
  9 10  2  0  0  0  0
  9 11  1  0  0  0  0
 10 12  1  0  0  0  0
 10 25  1  0  0  0  0
 11 13  2  0  0  0  0
 11 26  1  0  0  0  0
 12 14  2  0  0  0  0
 12 27  1  0  0  0  0
 13 14  1  0  0  0  0
 13 28  1  0  0  0  0
 14 29  1  0  0  0  0
M  END
> <PUBCHEM_COMPOUND_ID_TYPE>
0

> <PUBCHEM_TOTAL_CHARGE>
0

> <PUBCHEM_SUBSTANCE_ID>
170484938

> <PUBCHEM_SUBSTANCE_VERSION>
1

> <PUBCHEM_EXT_DATASOURCE_NAME>
Shanghai Institute of Organic Chemistry

> <PUBCHEM_EXT_DATASOURCE_REGID>
4eh4

> <PUBCHEM_SUBSTANCE_COMMENT>
PDB code 4eh4, binding affinity data from PDBbind-CN database: IC50=1534uM

> <PUBCHEM_SUBSTANCE_SYNONYM>
4eh4

> <PUBCHEM_XREF_EXT_ID>
4eh4

> <PUBCHEM_EXT_DATASOURCE_URL>
http://www.sioc-ccbg.ac.cn/

> <PUBCHEM_EXT_SUBSTANCE_URL>
http://www.pdbbind-cn.org/quickpdb.asp?quickpdb=4eh4

> <PUBCHEM_CID_ASSOCIATIONS>
69892  1

> <PUBCHEM_CONFORMER_ID>
0A2964CA00010001

> <PUBCHEM_COORDINATE_TYPE>
2
3
4

$$$$
170484937
  -OEChem-11262106393D

 32 34  0     1  0  0  0  0  0999 V2000
   -2.9790   -0.5870  -22.1450 O   0  0  0  0  0  0  0  0  0  0  0  0
   -2.9350    3.2740  -22.4660 O   0  0  0  0  0  0  0  0  0  0  0  0
   -0.8830    3.2260  -24.1220 O   0  0  0  0  0  0  0  0  0  0  0  0
    0.1530   -1.0840  -25.7620 O   0  0  0  0  0  0  0  0  0  0  0  0
   -5.0680   -2.3730  -16.2930 O   0  0  0  0  0  0  0  0  0  0  0  0
   -2.6680    0.0070  -20.8360 C   0  0  1  0  0  0  0  0  0  0  0  0
   -3.0240    1.5270  -20.8530 C   0  0  0  0  0  0  0  0  0  0  0  0
   -3.3160   -0.6500  -19.6110 C   0  0  0  0  0  0  0  0  0  0  0  0
   -1.9490    1.3290  -23.1390 C   0  0  0  0  0  0  0  0  0  0  0  0
   -2.6500    2.1050  -22.2170 C   0  0  0  0  0  0  0  0  0  0  0  0
   -2.1220   -0.0570  -23.0780 C   0  0  0  0  0  0  0  0  0  0  0  0
   -1.0660    1.8870  -24.0640 C   0  0  0  0  0  0  0  0  0  0  0  0
   -1.4160   -0.8740  -23.9600 C   0  0  0  0  0  0  0  0  0  0  0  0
   -2.5290   -1.3850  -18.7250 C   0  0  0  0  0  0  0  0  0  0  0  0
   -4.6820   -0.4950  -19.3770 C   0  0  0  0  0  0  0  0  0  0  0  0
   -0.3640    1.0710  -24.9420 C   0  0  0  0  0  0  0  0  0  0  0  0
   -0.5410   -0.3050  -24.8910 C   0  0  0  0  0  0  0  0  0  0  0  0
   -3.1150   -1.9670  -17.6030 C   0  0  0  0  0  0  0  0  0  0  0  0
   -5.2710   -1.0750  -18.2600 C   0  0  0  0  0  0  0  0  0  0  0  0
   -4.4850   -1.8090  -17.3790 C   0  0  0  0  0  0  0  0  0  0  0  0
   -1.5996   -0.1682  -20.7093 H   0  0  0  0  0  0  0  0  0  0  0  0
   -4.0915    1.6584  -20.6763 H   0  0  0  0  0  0  0  0  0  0  0  0
   -2.4718    2.0445  -20.0685 H   0  0  0  0  0  0  0  0  0  0  0  0
   -1.5459   -1.9556  -23.9240 H   0  0  0  0  0  0  0  0  0  0  0  0
   -1.4612   -1.5035  -18.9093 H   0  0  0  0  0  0  0  0  0  0  0  0
   -5.2899    0.0832  -20.0728 H   0  0  0  0  0  0  0  0  0  0  0  0
    0.3221    1.5087  -25.6671 H   0  0  0  0  0  0  0  0  0  0  0  0
   -2.5081   -2.5423  -16.9039 H   0  0  0  0  0  0  0  0  0  0  0  0
   -6.3388   -0.9556  -18.0764 H   0  0  0  0  0  0  0  0  0  0  0  0
   -1.7192    3.6538  -24.3200 H   0  0  0  0  0  0  0  0  0  0  0  0
   -0.0684   -2.0059  -25.6114 H   0  0  0  0  0  0  0  0  0  0  0  0
   -6.0058   -2.1678  -16.2919 H   0  0  0  0  0  0  0  0  0  0  0  0
  1  6  1  0  0  0  0
  1 11  1  0  0  0  0
  2 10  2  0  0  0  0
  3 12  1  0  0  0  0
  3 30  1  0  0  0  0
  4 17  1  0  0  0  0
  4 31  1  0  0  0  0
  5 20  1  0  0  0  0
  5 32  1  0  0  0  0
  6  7  1  0  0  0  0
  6  8  1  0  0  0  0
  6 21  1  0  0  0  0
  7 10  1  0  0  0  0
  7 22  1  0  0  0  0
  7 23  1  0  0  0  0
  8 14  2  0  0  0  0
  8 15  1  0  0  0  0
  9 10  1  0  0  0  0
  9 11  1  0  0  0  0
  9 12  2  0  0  0  0
 11 13  2  0  0  0  0
 12 16  1  0  0  0  0
 13 17  1  0  0  0  0
 13 24  1  0  0  0  0
 14 18  1  0  0  0  0
 14 25  1  0  0  0  0
 15 19  2  0  0  0  0
 15 26  1  0  0  0  0
 16 17  2  0  0  0  0
 16 27  1  0  0  0  0
 18 20  2  0  0  0  0
 18 28  1  0  0  0  0
 19 20  1  0  0  0  0
 19 29  1  0  0  0  0
M  END
> <PUBCHEM_COMPOUND_ID_TYPE>
0

> <PUBCHEM_TOTAL_CHARGE>
0

> <PUBCHEM_SUBSTANCE_ID>
170484937

> <PUBCHEM_SUBSTANCE_VERSION>
1

> <PUBCHEM_EXT_DATASOURCE_NAME>
Shanghai Institute of Organic Chemistry

> <PUBCHEM_EXT_DATASOURCE_REGID>
4eh3

> <PUBCHEM_SUBSTANCE_COMMENT>
PDB code 4eh3, binding affinity data from PDBbind-CN database: IC50=292uM

> <PUBCHEM_SUBSTANCE_SYNONYM>
4eh3

> <PUBCHEM_XREF_EXT_ID>
4eh3

> <PUBCHEM_EXT_DATASOURCE_URL>
http://www.sioc-ccbg.ac.cn/

> <PUBCHEM_EXT_SUBSTANCE_URL>
http://www.pdbbind-cn.org/quickpdb.asp?quickpdb=4eh3

> <PUBCHEM_CID_ASSOCIATIONS>
439246  1

> <PUBCHEM_CONFORMER_ID>
0A2964C900010001

> <PUBCHEM_COORDINATE_TYPE>
2
3
4

$$$$
170484945
  -OEChem-11262106393D

 91 95  0     0  0  0  0  0  0999 V2000
   18.4390   34.8220    9.6370 S   0  0  0  0  0  0  0  0  0  0  0  0
   22.1080   34.2450    7.2210 Si  0  0  0  0  0  0  0  0  0  0  0  0
   18.3120   36.2480    9.6220 O   0  0  0  0  0  0  0  0  0  0  0  0
   18.8230   34.1660   10.8480 O   0  0  0  0  0  0  0  0  0  0  0  0
   12.2080   29.5750   10.3470 O   0  0  0  0  0  0  0  0  0  0  0  0
   17.6700   32.0730    9.6450 O   0  0  0  0  0  0  0  0  0  0  0  0
    9.7180   33.5750    8.6640 O   0  0  0  0  0  0  0  0  0  0  0  0
   13.6110   28.3000    9.1280 N   0  0  0  0  0  0  0  0  0  0  0  0
    9.8290   29.9810    6.6830 N   0  0  0  0  0  0  0  0  0  0  0  0
   17.0050   34.2050    9.1390 N   0  0  0  0  0  0  0  0  0  0  0  0
    9.3180   30.7810    7.6910 N   0  0  0  0  0  0  0  0  0  0  0  0
   20.9000   34.7070    8.6040 C   0  0  0  0  0  0  0  0  0  0  0  0
   19.4480   34.3260    8.3240 C   0  0  0  0  0  0  0  0  0  0  0  0
   21.5670   35.0350    5.5950 C   0  0  0  0  0  0  0  0  0  0  0  0
   22.1760   32.3700    7.0230 C   0  0  0  0  0  0  0  0  0  0  0  0
   23.8220   34.8850    7.6970 C   0  0  0  0  0  0  0  0  0  0  0  0
   14.9900   28.1950    8.6750 C   0  0  0  0  0  0  0  0  0  0  0  0
   12.8560   27.0370    9.0660 C   0  0  0  0  0  0  0  0  0  0  0  0
   14.9880   27.9420    7.1890 C   0  0  0  0  0  0  0  0  0  0  0  0
   13.0700   26.3640    7.7160 C   0  0  0  0  0  0  0  0  0  0  0  0
   14.1280   26.7540    6.8610 C   0  0  0  0  0  0  0  0  0  0  0  0
   11.5630   31.0640    7.5710 C   0  0  0  0  0  0  0  0  0  0  0  0
   12.9130   31.4690    7.9910 C   0  0  0  0  0  0  0  0  0  0  0  0
   13.6690   30.7450    8.9360 C   0  0  0  0  0  0  0  0  0  0  0  0
   11.2280   30.1730    6.5800 C   0  0  0  0  0  0  0  0  0  0  0  0
   13.1510   29.4840    9.5860 C   0  0  0  0  0  0  0  0  0  0  0  0
   12.1270   29.4700    5.6150 C   0  0  0  0  0  0  0  0  0  0  0  0
   10.3360   31.4180    8.2210 C   0  0  0  0  0  0  0  0  0  0  0  0
   14.9500   31.1970    9.2820 C   0  0  0  0  0  0  0  0  0  0  0  0
   15.4870   32.3420    8.7040 C   0  0  0  0  0  0  0  0  0  0  0  0
   11.8290   29.6730    4.1450 C   0  0  0  0  0  0  0  0  0  0  0  0
   13.4580   32.6220    7.4240 C   0  0  0  0  0  0  0  0  0  0  0  0
   12.2090   25.3520    7.3010 C   0  0  0  0  0  0  0  0  0  0  0  0
   14.2960   26.0990    5.6400 C   0  0  0  0  0  0  0  0  0  0  0  0
   16.8180   32.8330    9.1730 C   0  0  0  0  0  0  0  0  0  0  0  0
   14.7310   33.0500    7.7700 C   0  0  0  0  0  0  0  0  0  0  0  0
   12.7970   28.8970    3.2820 C   0  0  0  0  0  0  0  0  0  0  0  0
    8.9730   29.0220    6.0580 C   0  0  0  0  0  0  0  0  0  0  0  0
   10.1550   32.4030    9.3310 C   0  0  0  0  0  0  0  0  0  0  0  0
   12.3770   24.7330    6.0690 C   0  0  0  0  0  0  0  0  0  0  0  0
   13.4180   25.1050    5.2430 C   0  0  0  0  0  0  0  0  0  0  0  0
   12.6080   29.1250    1.8360 C   0  0  0  0  0  0  0  0  0  0  0  0
    9.2340   27.6560    6.2060 C   0  0  0  0  0  0  0  0  0  0  0  0
    7.9260   29.4440    5.2420 C   0  0  0  0  0  0  0  0  0  0  0  0
    8.4640   26.7310    5.5160 C   0  0  0  0  0  0  0  0  0  0  0  0
    7.1540   28.5010    4.5700 C   0  0  0  0  0  0  0  0  0  0  0  0
    7.4220   27.1510    4.7060 C   0  0  0  0  0  0  0  0  0  0  0  0
   21.2087   34.1604    9.4951 H   0  0  0  0  0  0  0  0  0  0  0  0
   20.9323   35.7915    8.7089 H   0  0  0  0  0  0  0  0  0  0  0  0
   19.1176   34.8229    7.4118 H   0  0  0  0  0  0  0  0  0  0  0  0
   19.3782   33.2444    8.2084 H   0  0  0  0  0  0  0  0  0  0  0  0
   20.5705   34.6792    5.3335 H   0  0  0  0  0  0  0  0  0  0  0  0
   21.5492   36.1190    5.7074 H   0  0  0  0  0  0  0  0  0  0  0  0
   22.2699   34.7615    4.8081 H   0  0  0  0  0  0  0  0  0  0  0  0
   22.5103   31.9191    7.9574 H   0  0  0  0  0  0  0  0  0  0  0  0
   21.1832   31.9961    6.7725 H   0  0  0  0  0  0  0  0  0  0  0  0
   22.8736   32.1152    6.2251 H   0  0  0  0  0  0  0  0  0  0  0  0
   23.7839   35.9678    7.8161 H   0  0  0  0  0  0  0  0  0  0  0  0
   24.1322   34.4256    8.6355 H   0  0  0  0  0  0  0  0  0  0  0  0
   24.5346   34.6293    6.9128 H   0  0  0  0  0  0  0  0  0  0  0  0
   15.4895   27.3751    9.1911 H   0  0  0  0  0  0  0  0  0  0  0  0
   15.5248   29.1192    8.8941 H   0  0  0  0  0  0  0  0  0  0  0  0
   11.7946   27.2483    9.1958 H   0  0  0  0  0  0  0  0  0  0  0  0
   13.2055   26.3724    9.8561 H   0  0  0  0  0  0  0  0  0  0  0  0
   16.0084   27.7429    6.8614 H   0  0  0  0  0  0  0  0  0  0  0  0
   14.5899   28.8198    6.6800 H   0  0  0  0  0  0  0  0  0  0  0  0
   11.9996   28.4042    5.8048 H   0  0  0  0  0  0  0  0  0  0  0  0
   13.1247   29.8769    5.7801 H   0  0  0  0  0  0  0  0  0  0  0  0
   16.2621   34.8213    8.8093 H   0  0  0  0  0  0  0  0  0  0  0  0
   15.5345   30.6421   10.0158 H   0  0  0  0  0  0  0  0  0  0  0  0
   11.9267   30.7334    3.9123 H   0  0  0  0  0  0  0  0  0  0  0  0
   10.8185   29.3185    3.9415 H   0  0  0  0  0  0  0  0  0  0  0  0
   12.8761   33.1930    6.7005 H   0  0  0  0  0  0  0  0  0  0  0  0
   11.3918   25.0411    7.9518 H   0  0  0  0  0  0  0  0  0  0  0  0
   15.1281   26.3733    4.9916 H   0  0  0  0  0  0  0  0  0  0  0  0
   15.1440   33.9469    7.3083 H   0  0  0  0  0  0  0  0  0  0  0  0
   12.6285   27.8369    3.4717 H   0  0  0  0  0  0  0  0  0  0  0  0
   13.8032   29.2290    3.5377 H   0  0  0  0  0  0  0  0  0  0  0  0
   11.0699   32.5630    9.9014 H   0  0  0  0  0  0  0  0  0  0  0  0
    9.4441   32.0600   10.0827 H   0  0  0  0  0  0  0  0  0  0  0  0
   11.6852   23.9518    5.7540 H   0  0  0  0  0  0  0  0  0  0  0  0
   13.5490   24.6160    4.2777 H   0  0  0  0  0  0  0  0  0  0  0  0
   11.6003   28.8231    1.5505 H   0  0  0  0  0  0  0  0  0  0  0  0
   12.7480   30.1831    1.6150 H   0  0  0  0  0  0  0  0  0  0  0  0
   13.3366   28.5365    1.2784 H   0  0  0  0  0  0  0  0  0  0  0  0
   10.0384   27.3198    6.8602 H   0  0  0  0  0  0  0  0  0  0  0  0
    7.7125   30.5070    5.1304 H   0  0  0  0  0  0  0  0  0  0  0  0
    9.5738   34.2729    9.3072 H   0  0  0  0  0  0  0  0  0  0  0  0
    8.6804   25.6670    5.6119 H   0  0  0  0  0  0  0  0  0  0  0  0
    6.3328   28.8285    3.9324 H   0  0  0  0  0  0  0  0  0  0  0  0
    6.8136   26.4181    4.1761 H   0  0  0  0  0  0  0  0  0  0  0  0
  1  3  2  0  0  0  0
  1  4  2  0  0  0  0
  1 10  1  0  0  0  0
  1 13  1  0  0  0  0
  2 12  1  0  0  0  0
  2 14  1  0  0  0  0
  2 15  1  0  0  0  0
  2 16  1  0  0  0  0
  5 26  2  0  0  0  0
  6 35  2  0  0  0  0
  7 39  1  0  0  0  0
  7 88  1  0  0  0  0
  8 17  1  0  0  0  0
  8 18  1  0  0  0  0
  8 26  1  0  0  0  0
  9 11  1  0  0  0  0
  9 25  1  0  0  0  0
  9 38  1  0  0  0  0
 10 35  1  0  0  0  0
 10 69  1  0  0  0  0
 11 28  2  0  0  0  0
 12 13  1  0  0  0  0
 12 48  1  0  0  0  0
 12 49  1  0  0  0  0
 13 50  1  0  0  0  0
 13 51  1  0  0  0  0
 14 52  1  0  0  0  0
 14 53  1  0  0  0  0
 14 54  1  0  0  0  0
 15 55  1  0  0  0  0
 15 56  1  0  0  0  0
 15 57  1  0  0  0  0
 16 58  1  0  0  0  0
 16 59  1  0  0  0  0
 16 60  1  0  0  0  0
 17 19  1  0  0  0  0
 17 61  1  0  0  0  0
 17 62  1  0  0  0  0
 18 20  1  0  0  0  0
 18 63  1  0  0  0  0
 18 64  1  0  0  0  0
 19 21  1  0  0  0  0
 19 65  1  0  0  0  0
 19 66  1  0  0  0  0
 20 21  2  0  0  0  0
 20 33  1  0  0  0  0
 21 34  1  0  0  0  0
 22 23  1  0  0  0  0
 22 25  2  0  0  0  0
 22 28  1  0  0  0  0
 23 24  1  0  0  0  0
 23 32  2  0  0  0  0
 24 26  1  0  0  0  0
 24 29  2  0  0  0  0
 25 27  1  0  0  0  0
 27 31  1  0  0  0  0
 27 67  1  0  0  0  0
 27 68  1  0  0  0  0
 28 39  1  0  0  0  0
 29 30  1  0  0  0  0
 29 70  1  0  0  0  0
 30 35  1  0  0  0  0
 30 36  2  0  0  0  0
 31 37  1  0  0  0  0
 31 71  1  0  0  0  0
 31 72  1  0  0  0  0
 32 36  1  0  0  0  0
 32 73  1  0  0  0  0
 33 40  2  0  0  0  0
 33 74  1  0  0  0  0
 34 41  2  0  0  0  0
 34 75  1  0  0  0  0
 36 76  1  0  0  0  0
 37 42  1  0  0  0  0
 37 77  1  0  0  0  0
 37 78  1  0  0  0  0
 38 43  2  0  0  0  0
 38 44  1  0  0  0  0
 39 79  1  0  0  0  0
 39 80  1  0  0  0  0
 40 41  1  0  0  0  0
 40 81  1  0  0  0  0
 41 82  1  0  0  0  0
 42 83  1  0  0  0  0
 42 84  1  0  0  0  0
 42 85  1  0  0  0  0
 43 45  1  0  0  0  0
 43 86  1  0  0  0  0
 44 46  2  0  0  0  0
 44 87  1  0  0  0  0
 45 47  2  0  0  0  0
 45 89  1  0  0  0  0
 46 47  1  0  0  0  0
 46 90  1  0  0  0  0
 47 91  1  0  0  0  0
M  END
> <PUBCHEM_COMPOUND_ID_TYPE>
0

> <PUBCHEM_TOTAL_CHARGE>
0

> <PUBCHEM_SUBSTANCE_ID>
170484945

> <PUBCHEM_SUBSTANCE_VERSION>
1

> <PUBCHEM_EXT_DATASOURCE_NAME>
Shanghai Institute of Organic Chemistry

> <PUBCHEM_EXT_DATASOURCE_REGID>
4ehr

> <PUBCHEM_SUBSTANCE_COMMENT>
PDB code 4ehr, binding affinity data from PDBbind-CN database: IC50=13nM

> <PUBCHEM_SUBSTANCE_SYNONYM>
4ehr

> <PUBCHEM_XREF_EXT_ID>
4ehr

> <PUBCHEM_EXT_DATASOURCE_URL>
http://www.sioc-ccbg.ac.cn/

> <PUBCHEM_EXT_SUBSTANCE_URL>
http://www.pdbbind-cn.org/quickpdb.asp?quickpdb=4ehr

> <PUBCHEM_CID_ASSOCIATIONS>
56973540  1

> <PUBCHEM_CONFORMER_ID>
0A2964D100010001

> <PUBCHEM_COORDINATE_TYPE>
2
3
4

$$$$
170484930
  -OEChem-11262106393D

 52 55  0     0  0  0  0  0  0999 V2000
   -3.2590   11.2620   25.5550 O   0  0  0  0  0  0  0  0  0  0  0  0
   -1.2970   11.0130   28.0170 O   0  0  0  0  0  0  0  0  0  0  0  0
   -0.3000   13.0240   22.1060 N   0  0  0  0  0  0  0  0  0  0  0  0
   -0.6750    9.0290   27.1470 N   0  0  0  0  0  0  0  0  0  0  0  0
    1.0920   12.9610   22.0130 N   0  0  0  0  0  0  0  0  0  0  0  0
    0.4920   12.0110   23.9430 C   0  0  0  0  0  0  0  0  0  0  0  0
    1.6040   12.4290   23.0900 C   0  0  0  0  0  0  0  0  0  0  0  0
   -0.6930   12.4380   23.2730 C   0  0  0  0  0  0  0  0  0  0  0  0
    3.0700   12.1190   23.2900 C   0  0  0  0  0  0  0  0  0  0  0  0
   -0.8670   11.0920   25.7270 C   0  0  0  0  0  0  0  0  0  0  0  0
    0.4070   11.3700   25.1900 C   0  0  0  0  0  0  0  0  0  0  0  0
    3.7460   12.7600   24.4760 C   0  0  0  0  0  0  0  0  0  0  0  0
   -1.9520   12.1840   23.8320 C   0  0  0  0  0  0  0  0  0  0  0  0
   -2.0350   11.4780   25.0190 C   0  0  0  0  0  0  0  0  0  0  0  0
   -0.9670   10.3650   27.0270 C   0  0  0  0  0  0  0  0  0  0  0  0
   -0.3610    8.1380   26.0060 C   0  0  0  0  0  0  0  0  0  0  0  0
    4.0760   14.1130   24.4390 C   0  0  0  0  0  0  0  0  0  0  0  0
    4.1470   11.9790   25.5600 C   0  0  0  0  0  0  0  0  0  0  0  0
    1.0610    8.1090   25.5040 C   0  0  0  0  0  0  0  0  0  0  0  0
    4.7870   14.6690   25.5020 C   0  0  0  0  0  0  0  0  0  0  0  0
   -0.7630    8.3780   28.4660 C   0  0  0  0  0  0  0  0  0  0  0  0
    4.8740   12.5480   26.6140 C   0  0  0  0  0  0  0  0  0  0  0  0
    5.1760   13.9040   26.6000 C   0  0  0  0  0  0  0  0  0  0  0  0
    2.1600    8.3360   26.3330 C   0  0  0  0  0  0  0  0  0  0  0  0
    1.2560    7.8480   24.1460 C   0  0  0  0  0  0  0  0  0  0  0  0
    5.1260   16.1190   25.4630 C   0  0  0  0  0  0  0  0  0  0  0  0
    3.4430    8.3040   25.7870 C   0  0  0  0  0  0  0  0  0  0  0  0
    2.5390    7.8170   23.6040 C   0  0  0  0  0  0  0  0  0  0  0  0
    3.6370    8.0370   24.4320 C   0  0  0  0  0  0  0  0  0  0  0  0
    3.6052   12.4449   22.3860 H   0  0  0  0  0  0  0  0  0  0  0  0
    3.1673   11.0289   23.4008 H   0  0  0  0  0  0  0  0  0  0  0  0
    1.3053   11.0938   25.7303 H   0  0  0  0  0  0  0  0  0  0  0  0
   -2.8513   12.5366   23.3401 H   0  0  0  0  0  0  0  0  0  0  0  0
   -0.9281   13.4449   21.4065 H   0  0  0  0  0  0  0  0  0  0  0  0
   -0.9992    8.4458   25.1646 H   0  0  0  0  0  0  0  0  0  0  0  0
   -0.6224    7.1133   26.3088 H   0  0  0  0  0  0  0  0  0  0  0  0
    3.7836   14.7261   23.5942 H   0  0  0  0  0  0  0  0  0  0  0  0
    3.8946   10.9251   25.5871 H   0  0  0  0  0  0  0  0  0  0  0  0
   -0.4956    7.3154   28.3690 H   0  0  0  0  0  0  0  0  0  0  0  0
   -1.7904    8.4640   28.8496 H   0  0  0  0  0  0  0  0  0  0  0  0
   -0.0687    8.8685   29.1641 H   0  0  0  0  0  0  0  0  0  0  0  0
    5.2013   11.9292   27.4417 H   0  0  0  0  0  0  0  0  0  0  0  0
    5.7053   14.3593   27.4292 H   0  0  0  0  0  0  0  0  0  0  0  0
    2.0183    8.5349   27.3891 H   0  0  0  0  0  0  0  0  0  0  0  0
    0.3995    7.6675   23.5065 H   0  0  0  0  0  0  0  0  0  0  0  0
   -3.1676   10.7692   26.3621 H   0  0  0  0  0  0  0  0  0  0  0  0
    5.6832   16.3898   26.3720 H   0  0  0  0  0  0  0  0  0  0  0  0
    4.2002   16.7107   25.4105 H   0  0  0  0  0  0  0  0  0  0  0  0
    5.7450   16.3272   24.5779 H   0  0  0  0  0  0  0  0  0  0  0  0
    4.3004    8.4890   26.4240 H   0  0  0  0  0  0  0  0  0  0  0  0
    2.6814    7.6233   22.5470 H   0  0  0  0  0  0  0  0  0  0  0  0
    4.6406    8.0008   24.0240 H   0  0  0  0  0  0  0  0  0  0  0  0
  1 14  1  0  0  0  0
  1 46  1  0  0  0  0
  2 15  2  0  0  0  0
  3  5  1  0  0  0  0
  3  8  1  0  0  0  0
  3 34  1  0  0  0  0
  4 15  1  0  0  0  0
  4 16  1  0  0  0  0
  4 21  1  0  0  0  0
  5  7  2  0  0  0  0
  6  7  1  0  0  0  0
  6  8  2  0  0  0  0
  6 11  1  0  0  0  0
  7  9  1  0  0  0  0
  8 13  1  0  0  0  0
  9 12  1  0  0  0  0
  9 30  1  0  0  0  0
  9 31  1  0  0  0  0
 10 11  2  0  0  0  0
 10 14  1  0  0  0  0
 10 15  1  0  0  0  0
 11 32  1  0  0  0  0
 12 17  2  0  0  0  0
 12 18  1  0  0  0  0
 13 14  2  0  0  0  0
 13 33  1  0  0  0  0
 16 19  1  0  0  0  0
 16 35  1  0  0  0  0
 16 36  1  0  0  0  0
 17 20  1  0  0  0  0
 17 37  1  0  0  0  0
 18 22  2  0  0  0  0
 18 38  1  0  0  0  0
 19 24  2  0  0  0  0
 19 25  1  0  0  0  0
 20 23  2  0  0  0  0
 20 26  1  0  0  0  0
 21 39  1  0  0  0  0
 21 40  1  0  0  0  0
 21 41  1  0  0  0  0
 22 23  1  0  0  0  0
 22 42  1  0  0  0  0
 23 43  1  0  0  0  0
 24 27  1  0  0  0  0
 24 44  1  0  0  0  0
 25 28  2  0  0  0  0
 25 45  1  0  0  0  0
 26 47  1  0  0  0  0
 26 48  1  0  0  0  0
 26 49  1  0  0  0  0
 27 29  2  0  0  0  0
 27 50  1  0  0  0  0
 28 29  1  0  0  0  0
 28 51  1  0  0  0  0
 29 52  1  0  0  0  0
M  END
> <PUBCHEM_COMPOUND_ID_TYPE>
0

> <PUBCHEM_TOTAL_CHARGE>
0

> <PUBCHEM_SUBSTANCE_ID>
170484930

> <PUBCHEM_SUBSTANCE_VERSION>
1

> <PUBCHEM_EXT_DATASOURCE_NAME>
Shanghai Institute of Organic Chemistry

> <PUBCHEM_EXT_DATASOURCE_REGID>
4efu

> <PUBCHEM_SUBSTANCE_COMMENT>
PDB code 4efu, binding affinity data from PDBbind-CN database: IC50=0.25uM

> <PUBCHEM_SUBSTANCE_SYNONYM>
4efu

> <PUBCHEM_XREF_EXT_ID>
4efu

> <PUBCHEM_EXT_DATASOURCE_URL>
http://www.sioc-ccbg.ac.cn/

> <PUBCHEM_EXT_SUBSTANCE_URL>
http://www.pdbbind-cn.org/quickpdb.asp?quickpdb=4efu

> <PUBCHEM_CID_ASSOCIATIONS>
135566719  1

> <PUBCHEM_CONFORMER_ID>
0A2964C200010001

> <PUBCHEM_COORDINATE_TYPE>
2
3
4

$$$$
170484929
  -OEChem-11262106393D

 39 41  0     1  0  0  0  0  0999 V2000
   62.8460   34.2490   24.4420 O   0  0  0  0  0  0  0  0  0  0  0  0
   67.1820   32.4090   27.8850 N   0  0  0  0  0  0  0  0  0  0  0  0
   65.7990   32.4950   27.9210 N   0  0  0  0  0  0  0  0  0  0  0  0
   69.8330   35.4100   26.2960 N   0  0  0  0  0  0  0  0  0  0  0  0
   70.6710   31.3330   25.0240 C   0  0  0  0  0  0  0  0  0  0  0  0
   70.7330   30.6670   23.6440 C   0  0  0  0  0  0  0  0  0  0  0  0
   71.9740   32.1270   25.2580 C   0  0  0  0  0  0  0  0  0  0  0  0
   69.4230   32.2210   25.0000 C   0  0  0  0  0  0  0  0  0  0  0  0
   71.9400   29.7400   23.5150 C   0  0  0  0  0  0  0  0  0  0  0  0
   73.1960   31.1890   25.1620 C   0  0  0  0  0  0  0  0  0  0  0  0
   73.2480   30.5010   23.7840 C   0  0  0  0  0  0  0  0  0  0  0  0
   69.1110   32.9060   26.3380 C   0  0  2  0  0  0  0  0  0  0  0  0
   67.6560   32.8360   26.7330 C   0  0  0  0  0  0  0  0  0  0  0  0
   66.5350   33.3090   25.9350 C   0  0  0  0  0  0  0  0  0  0  0  0
   69.5200   34.3190   26.2950 C   0  0  0  0  0  0  0  0  0  0  0  0
   65.3780   33.0590   26.7340 C   0  0  0  0  0  0  0  0  0  0  0  0
   66.4230   33.9000   24.6560 C   0  0  0  0  0  0  0  0  0  0  0  0
   64.1210   33.4060   26.2170 C   0  0  0  0  0  0  0  0  0  0  0  0
   65.1870   34.2210   24.1670 C   0  0  0  0  0  0  0  0  0  0  0  0
   64.0520   33.9760   24.9560 C   0  0  0  0  0  0  0  0  0  0  0  0
   70.5686   30.5735   25.8130 H   0  0  0  0  0  0  0  0  0  0  0  0
   70.8012   31.4494   22.8738 H   0  0  0  0  0  0  0  0  0  0  0  0
   69.8154   30.0801   23.4904 H   0  0  0  0  0  0  0  0  0  0  0  0
   71.9456   32.5850   26.2577 H   0  0  0  0  0  0  0  0  0  0  0  0
   72.0607   32.9153   24.4958 H   0  0  0  0  0  0  0  0  0  0  0  0
   69.5699   33.0016   24.2390 H   0  0  0  0  0  0  0  0  0  0  0  0
   68.5609   31.5965   24.7231 H   0  0  0  0  0  0  0  0  0  0  0  0
   71.9679   29.3248   22.4967 H   0  0  0  0  0  0  0  0  0  0  0  0
   71.8441   28.9206   24.2426 H   0  0  0  0  0  0  0  0  0  0  0  0
   74.1145   31.7767   25.3070 H   0  0  0  0  0  0  0  0  0  0  0  0
   73.1242   30.4212   25.9464 H   0  0  0  0  0  0  0  0  0  0  0  0
   73.3910   31.2630   23.0037 H   0  0  0  0  0  0  0  0  0  0  0  0
   74.0898   29.7932   23.7639 H   0  0  0  0  0  0  0  0  0  0  0  0
   69.6968   32.3954   27.1165 H   0  0  0  0  0  0  0  0  0  0  0  0
   65.1928   32.1916   28.6965 H   0  0  0  0  0  0  0  0  0  0  0  0
   67.3111   34.0975   24.0666 H   0  0  0  0  0  0  0  0  0  0  0  0
   63.2199   33.2314   26.7936 H   0  0  0  0  0  0  0  0  0  0  0  0
   65.0847   34.6598   23.1811 H   0  0  0  0  0  0  0  0  0  0  0  0
   62.9502   34.6336   23.5796 H   0  0  0  0  0  0  0  0  0  0  0  0
  1 20  1  0  0  0  0
  1 39  1  0  0  0  0
  2  3  1  0  0  0  0
  2 13  2  0  0  0  0
  3 16  1  0  0  0  0
  3 35  1  0  0  0  0
  4 15  3  0  0  0  0
  5  6  1  0  0  0  0
  5  7  1  0  0  0  0
  5  8  1  0  0  0  0
  5 21  1  0  0  0  0
  6  9  1  0  0  0  0
  6 22  1  0  0  0  0
  6 23  1  0  0  0  0
  7 10  1  0  0  0  0
  7 24  1  0  0  0  0
  7 25  1  0  0  0  0
  8 12  1  0  0  0  0
  8 26  1  0  0  0  0
  8 27  1  0  0  0  0
  9 11  1  0  0  0  0
  9 28  1  0  0  0  0
  9 29  1  0  0  0  0
 10 11  1  0  0  0  0
 10 30  1  0  0  0  0
 10 31  1  0  0  0  0
 11 32  1  0  0  0  0
 11 33  1  0  0  0  0
 12 13  1  0  0  0  0
 12 15  1  0  0  0  0
 12 34  1  0  0  0  0
 13 14  1  0  0  0  0
 14 16  2  0  0  0  0
 14 17  1  0  0  0  0
 16 18  1  0  0  0  0
 17 19  2  0  0  0  0
 17 36  1  0  0  0  0
 18 20  2  0  0  0  0
 18 37  1  0  0  0  0
 19 20  1  0  0  0  0
 19 38  1  0  0  0  0
M  END
> <PUBCHEM_COMPOUND_ID_TYPE>
0

> <PUBCHEM_TOTAL_CHARGE>
0

> <PUBCHEM_SUBSTANCE_ID>
170484929

> <PUBCHEM_SUBSTANCE_VERSION>
1

> <PUBCHEM_EXT_DATASOURCE_NAME>
Shanghai Institute of Organic Chemistry

> <PUBCHEM_EXT_DATASOURCE_REGID>
4eft

> <PUBCHEM_SUBSTANCE_COMMENT>
PDB code 4eft, binding affinity data from PDBbind-CN database: IC50=85uM

> <PUBCHEM_SUBSTANCE_SYNONYM>
4eft

> <PUBCHEM_XREF_EXT_ID>
4eft

> <PUBCHEM_EXT_DATASOURCE_URL>
http://www.sioc-ccbg.ac.cn/

> <PUBCHEM_EXT_SUBSTANCE_URL>
http://www.pdbbind-cn.org/quickpdb.asp?quickpdb=4eft

> <PUBCHEM_CID_ASSOCIATIONS>
135566718  1

> <PUBCHEM_CONFORMER_ID>
0A2964C100010001

> <PUBCHEM_COORDINATE_TYPE>
2
3
4

$$$$
170484965
  -OEChem-11262106393D

 37 39  0     0  0  0  0  0  0999 V2000
  -66.2010  114.2840    0.2770 Cl  0  0  0  0  0  0  0  0  0  0  0  0
  -66.2450  118.7650    1.0160 S   0  0  0  0  0  0  0  0  0  0  0  0
  -68.8680  122.0360   -1.4900 O   0  0  0  0  0  0  0  0  0  0  0  0
  -70.6430  123.8000   -0.2800 O   0  0  0  0  0  0  0  0  0  0  0  0
  -64.9580  119.2810    4.5850 O   0  0  0  0  0  0  0  0  0  0  0  0
  -64.4210  116.6990    0.7220 N   0  0  0  0  0  0  0  0  0  0  0  0
  -64.5180  117.8920    2.8130 N   0  0  0  0  0  0  0  0  0  0  0  0
  -68.0440  121.4690    2.0510 C   0  0  0  0  0  0  0  0  0  0  0  0
  -66.2890  119.6300    2.5910 C   0  0  0  0  0  0  0  0  0  0  0  0
  -67.1270  120.6580    2.8910 C   0  0  0  0  0  0  0  0  0  0  0  0
  -68.0440  121.3840    0.6540 C   0  0  0  0  0  0  0  0  0  0  0  0
  -68.9440  122.3670    2.6510 C   0  0  0  0  0  0  0  0  0  0  0  0
  -68.9010  122.1500   -0.1220 C   0  0  0  0  0  0  0  0  0  0  0  0
  -64.8520  116.4750   -0.6160 C   0  0  0  0  0  0  0  0  0  0  0  0
  -64.9100  117.6560    1.5800 C   0  0  0  0  0  0  0  0  0  0  0  0
  -69.7980  123.0430    0.4850 C   0  0  0  0  0  0  0  0  0  0  0  0
  -69.8150  123.1440    1.8870 C   0  0  0  0  0  0  0  0  0  0  0  0
  -65.2360  118.9750    3.4460 C   0  0  0  0  0  0  0  0  0  0  0  0
  -65.6750  115.3790   -0.9380 C   0  0  0  0  0  0  0  0  0  0  0  0
  -64.4820  117.3120   -1.6840 C   0  0  0  0  0  0  0  0  0  0  0  0
  -66.1130  115.1130   -2.2290 C   0  0  0  0  0  0  0  0  0  0  0  0
  -64.9190  117.0480   -2.9760 C   0  0  0  0  0  0  0  0  0  0  0  0
  -65.7320  115.9580   -3.2590 C   0  0  0  0  0  0  0  0  0  0  0  0
  -68.0870  120.9670   -2.0060 C   0  0  0  0  0  0  0  0  0  0  0  0
  -67.1252  120.9390    3.9442 H   0  0  0  0  0  0  0  0  0  0  0  0
  -67.3530  120.6980    0.1635 H   0  0  0  0  0  0  0  0  0  0  0  0
  -68.9616  122.4580    3.7370 H   0  0  0  0  0  0  0  0  0  0  0  0
  -63.6809  116.0940    1.0773 H   0  0  0  0  0  0  0  0  0  0  0  0
  -70.5078  123.8280    2.3765 H   0  0  0  0  0  0  0  0  0  0  0  0
  -63.8457  118.1770   -1.4960 H   0  0  0  0  0  0  0  0  0  0  0  0
  -66.7485  114.2500   -2.4294 H   0  0  0  0  0  0  0  0  0  0  0  0
  -64.6169  117.7120   -3.7863 H   0  0  0  0  0  0  0  0  0  0  0  0
  -66.0663  115.7700   -4.2792 H   0  0  0  0  0  0  0  0  0  0  0  0
  -70.4953  123.6040   -1.2080 H   0  0  0  0  0  0  0  0  0  0  0  0
  -67.0520  121.0880   -1.6861 H   0  0  0  0  0  0  0  0  0  0  0  0
  -68.4766  120.0200   -1.6315 H   0  0  0  0  0  0  0  0  0  0  0  0
  -68.1354  120.9760   -3.0949 H   0  0  0  0  0  0  0  0  0  0  0  0
  1 19  1  0  0  0  0
  2  9  1  0  0  0  0
  2 15  1  0  0  0  0
  3 13  1  0  0  0  0
  3 24  1  0  0  0  0
  4 16  1  0  0  0  0
  4 34  1  0  0  0  0
  5 18  2  0  0  0  0
  6 14  1  0  0  0  0
  6 15  1  0  0  0  0
  6 28  1  0  0  0  0
  7 15  2  0  0  0  0
  7 18  1  0  0  0  0
  8 10  1  0  0  0  0
  8 11  2  0  0  0  0
  8 12  1  0  0  0  0
  9 10  2  0  0  0  0
  9 18  1  0  0  0  0
 10 25  1  0  0  0  0
 11 13  1  0  0  0  0
 11 26  1  0  0  0  0
 12 17  2  0  0  0  0
 12 27  1  0  0  0  0
 13 16  2  0  0  0  0
 14 19  2  0  0  0  0
 14 20  1  0  0  0  0
 16 17  1  0  0  0  0
 17 29  1  0  0  0  0
 19 21  1  0  0  0  0
 20 22  2  0  0  0  0
 20 30  1  0  0  0  0
 21 23  2  0  0  0  0
 21 31  1  0  0  0  0
 22 23  1  0  0  0  0
 22 32  1  0  0  0  0
 23 33  1  0  0  0  0
 24 35  1  0  0  0  0
 24 36  1  0  0  0  0
 24 37  1  0  0  0  0
M  END
> <PUBCHEM_COMPOUND_ID_TYPE>
0

> <PUBCHEM_TOTAL_CHARGE>
0

> <PUBCHEM_SUBSTANCE_ID>
170484965

> <PUBCHEM_SUBSTANCE_VERSION>
1

> <PUBCHEM_EXT_DATASOURCE_NAME>
Shanghai Institute of Organic Chemistry

> <PUBCHEM_EXT_DATASOURCE_REGID>
4eny

> <PUBCHEM_SUBSTANCE_COMMENT>
PDB code 4eny, binding affinity data from PDBbind-CN database: IC50=0.089uM

> <PUBCHEM_SUBSTANCE_SYNONYM>
4eny

> <PUBCHEM_XREF_EXT_ID>
4eny

> <PUBCHEM_EXT_DATASOURCE_URL>
http://www.sioc-ccbg.ac.cn/

> <PUBCHEM_EXT_SUBSTANCE_URL>
http://www.pdbbind-cn.org/quickpdb.asp?quickpdb=4eny

> <PUBCHEM_CID_ASSOCIATIONS>
135401109  1

> <PUBCHEM_CONFORMER_ID>
0A2964E500010001

> <PUBCHEM_COORDINATE_TYPE>
2
3
4

$$$$
170484987
  -OEChem-11262106393D

 48 51  0     0  0  0  0  0  0999 V2000
  -16.9610    6.6850  -21.4430 O   0  0  0  0  0  0  0  0  0  0  0  0
  -13.3930   12.3820  -26.5740 O   0  0  0  0  0  0  0  0  0  0  0  0
  -11.8040    9.7060  -32.0340 O   0  0  0  0  0  0  0  0  0  0  0  0
  -16.1680    9.0870  -22.6130 N   0  0  0  0  0  0  0  0  0  0  0  0
  -16.2240   11.4670  -22.6440 N   0  0  0  0  0  0  0  0  0  0  0  0
  -14.5590   10.6180  -27.3330 N   0  0  0  0  0  0  0  0  0  0  0  0
  -10.3580   12.7070  -34.4720 N   0  0  0  0  0  0  0  0  0  0  0  0
  -16.4390    9.0650  -21.1810 C   0  0  0  0  0  0  0  0  0  0  0  0
  -16.1500    7.8560  -23.3860 C   0  0  0  0  0  0  0  0  0  0  0  0
  -17.4310    7.9360  -20.9340 C   0  0  0  0  0  0  0  0  0  0  0  0
  -15.8660    6.7730  -22.3540 C   0  0  0  0  0  0  0  0  0  0  0  0
  -15.8890   10.3030  -23.2410 C   0  0  0  0  0  0  0  0  0  0  0  0
  -15.2410   10.2920  -24.4700 C   0  0  0  0  0  0  0  0  0  0  0  0
  -14.9400   11.4950  -25.0830 C   0  0  0  0  0  0  0  0  0  0  0  0
  -15.2990   12.6790  -24.4560 C   0  0  0  0  0  0  0  0  0  0  0  0
  -15.9480   12.6380  -23.2250 C   0  0  0  0  0  0  0  0  0  0  0  0
  -14.2360   11.5210  -26.4060 C   0  0  0  0  0  0  0  0  0  0  0  0
  -13.8530   10.4180  -28.4740 C   0  0  0  0  0  0  0  0  0  0  0  0
  -12.5780   10.9450  -28.6620 C   0  0  0  0  0  0  0  0  0  0  0  0
  -14.4200    9.6530  -29.4810 C   0  0  0  0  0  0  0  0  0  0  0  0
  -12.4650    9.9570  -30.8570 C   0  0  0  0  0  0  0  0  0  0  0  0
  -11.8830   10.7140  -29.8490 C   0  0  0  0  0  0  0  0  0  0  0  0
  -13.7300    9.4190  -30.6650 C   0  0  0  0  0  0  0  0  0  0  0  0
  -11.3200   10.7100  -32.8340 C   0  0  0  0  0  0  0  0  0  0  0  0
  -10.2650   10.4620  -33.7020 C   0  0  0  0  0  0  0  0  0  0  0  0
  -11.8910   11.9800  -32.8140 C   0  0  0  0  0  0  0  0  0  0  0  0
   -9.8020   11.4900  -34.5180 C   0  0  0  0  0  0  0  0  0  0  0  0
  -11.3790   12.9720  -33.6450 C   0  0  0  0  0  0  0  0  0  0  0  0
  -16.8722   10.0249  -20.8635 H   0  0  0  0  0  0  0  0  0  0  0  0
  -15.5092    8.8799  -20.6231 H   0  0  0  0  0  0  0  0  0  0  0  0
  -15.3581    7.8856  -24.1489 H   0  0  0  0  0  0  0  0  0  0  0  0
  -17.1218    7.6863  -23.8726 H   0  0  0  0  0  0  0  0  0  0  0  0
  -18.3818    8.1850  -21.4280 H   0  0  0  0  0  0  0  0  0  0  0  0
  -17.5950    7.8388  -19.8507 H   0  0  0  0  0  0  0  0  0  0  0  0
  -15.7341    5.8069  -22.8632 H   0  0  0  0  0  0  0  0  0  0  0  0
  -14.9487    7.0246  -21.8015 H   0  0  0  0  0  0  0  0  0  0  0  0
  -14.9749    9.3532  -24.9422 H   0  0  0  0  0  0  0  0  0  0  0  0
  -15.0753   13.6317  -24.9222 H   0  0  0  0  0  0  0  0  0  0  0  0
  -16.2313   13.5623  -22.7347 H   0  0  0  0  0  0  0  0  0  0  0  0
  -15.3704   10.0545  -27.1776 H   0  0  0  0  0  0  0  0  0  0  0  0
  -12.1216   11.5399  -27.8791 H   0  0  0  0  0  0  0  0  0  0  0  0
  -15.4101    9.2335  -29.3442 H   0  0  0  0  0  0  0  0  0  0  0  0
  -10.8892   11.1252  -29.9845 H   0  0  0  0  0  0  0  0  0  0  0  0
  -14.1822    8.8134  -31.4421 H   0  0  0  0  0  0  0  0  0  0  0  0
   -9.8077    9.4800  -33.7436 H   0  0  0  0  0  0  0  0  0  0  0  0
  -12.7265   12.1939  -32.1573 H   0  0  0  0  0  0  0  0  0  0  0  0
   -8.9803   11.3028  -35.1998 H   0  0  0  0  0  0  0  0  0  0  0  0
  -11.8093   13.9667  -33.6233 H   0  0  0  0  0  0  0  0  0  0  0  0
  1 10  1  0  0  0  0
  1 11  1  0  0  0  0
  2 17  2  0  0  0  0
  3 21  1  0  0  0  0
  3 24  1  0  0  0  0
  4  8  1  0  0  0  0
  4  9  1  0  0  0  0
  4 12  1  0  0  0  0
  5 12  1  0  0  0  0
  5 16  2  0  0  0  0
  6 17  1  0  0  0  0
  6 18  1  0  0  0  0
  6 40  1  0  0  0  0
  7 27  2  0  0  0  0
  7 28  1  0  0  0  0
  8 10  1  0  0  0  0
  8 29  1  0  0  0  0
  8 30  1  0  0  0  0
  9 11  1  0  0  0  0
  9 31  1  0  0  0  0
  9 32  1  0  0  0  0
 10 33  1  0  0  0  0
 10 34  1  0  0  0  0
 11 35  1  0  0  0  0
 11 36  1  0  0  0  0
 12 13  2  0  0  0  0
 13 14  1  0  0  0  0
 13 37  1  0  0  0  0
 14 15  2  0  0  0  0
 14 17  1  0  0  0  0
 15 16  1  0  0  0  0
 15 38  1  0  0  0  0
 16 39  1  0  0  0  0
 18 19  2  0  0  0  0
 18 20  1  0  0  0  0
 19 22  1  0  0  0  0
 19 41  1  0  0  0  0
 20 23  2  0  0  0  0
 20 42  1  0  0  0  0
 21 22  2  0  0  0  0
 21 23  1  0  0  0  0
 22 43  1  0  0  0  0
 23 44  1  0  0  0  0
 24 25  2  0  0  0  0
 24 26  1  0  0  0  0
 25 27  1  0  0  0  0
 25 45  1  0  0  0  0
 26 28  2  0  0  0  0
 26 46  1  0  0  0  0
 27 47  1  0  0  0  0
 28 48  1  0  0  0  0
M  END
> <PUBCHEM_COMPOUND_ID_TYPE>
0

> <PUBCHEM_TOTAL_CHARGE>
0

> <PUBCHEM_SUBSTANCE_ID>
170484987

> <PUBCHEM_SUBSTANCE_VERSION>
1

> <PUBCHEM_EXT_DATASOURCE_NAME>
Shanghai Institute of Organic Chemistry

> <PUBCHEM_EXT_DATASOURCE_REGID>
4eym

> <PUBCHEM_SUBSTANCE_COMMENT>
PDB code 4eym, binding affinity data from PDBbind-CN database: IC50=98747nM

> <PUBCHEM_SUBSTANCE_SYNONYM>
4eym

> <PUBCHEM_XREF_EXT_ID>
4eym

> <PUBCHEM_EXT_DATASOURCE_URL>
http://www.sioc-ccbg.ac.cn/

> <PUBCHEM_EXT_SUBSTANCE_URL>
http://www.pdbbind-cn.org/quickpdb.asp?quickpdb=4eym

> <PUBCHEM_CID_ASSOCIATIONS>
70679357  1

> <PUBCHEM_CONFORMER_ID>
0A2964FB00010001

> <PUBCHEM_COORDINATE_TYPE>
2
3
4

$$$$
170484986
  -OEChem-11262106393D

 50 52  0     0  0  0  0  0  0999 V2000
  -12.9230   12.2820  -26.4660 O   0  0  0  0  0  0  0  0  0  0  0  0
  -11.0290    9.7820  -32.2910 O   0  0  0  0  0  0  0  0  0  0  0  0
  -15.1920   12.0990  -23.0590 N   0  0  0  0  0  0  0  0  0  0  0  0
  -14.9830   13.2160  -22.2590 N   0  0  0  0  0  0  0  0  0  0  0  0
  -14.9220   11.5170  -25.5020 N   0  0  0  0  0  0  0  0  0  0  0  0
  -14.1020   10.6160  -27.6590 N   0  0  0  0  0  0  0  0  0  0  0  0
   -9.9990   13.1130  -34.5090 N   0  0  0  0  0  0  0  0  0  0  0  0
  -14.1720   15.6350  -22.5330 C   0  0  0  0  0  0  0  0  0  0  0  0
  -14.5280   14.2170  -23.0140 C   0  0  0  0  0  0  0  0  0  0  0  0
  -12.7490   15.9670  -22.9430 C   0  0  0  0  0  0  0  0  0  0  0  0
  -14.3210   15.7030  -21.0620 C   0  0  0  0  0  0  0  0  0  0  0  0
  -15.1150   16.6080  -23.1730 C   0  0  0  0  0  0  0  0  0  0  0  0
  -14.4260   13.7380  -24.3550 C   0  0  0  0  0  0  0  0  0  0  0  0
  -14.8390   12.4200  -24.3360 C   0  0  0  0  0  0  0  0  0  0  0  0
  -15.6870   10.7860  -22.6260 C   0  0  0  0  0  0  0  0  0  0  0  0
  -13.8960   11.5290  -26.5500 C   0  0  0  0  0  0  0  0  0  0  0  0
  -13.2280   10.4380  -28.8060 C   0  0  0  0  0  0  0  0  0  0  0  0
  -13.8260    9.9020  -29.9530 C   0  0  0  0  0  0  0  0  0  0  0  0
  -11.8990   10.7610  -28.8190 C   0  0  0  0  0  0  0  0  0  0  0  0
  -11.7390   10.0210  -31.1390 C   0  0  0  0  0  0  0  0  0  0  0  0
  -13.0660    9.6910  -31.1170 C   0  0  0  0  0  0  0  0  0  0  0  0
  -11.1320   10.5510  -29.9950 C   0  0  0  0  0  0  0  0  0  0  0  0
  -10.7000   10.9220  -33.0250 C   0  0  0  0  0  0  0  0  0  0  0  0
  -11.4340   12.1340  -32.9240 C   0  0  0  0  0  0  0  0  0  0  0  0
   -9.6040   10.8610  -33.9040 C   0  0  0  0  0  0  0  0  0  0  0  0
  -11.0680   13.2030  -33.6630 C   0  0  0  0  0  0  0  0  0  0  0  0
   -9.2750   11.9600  -34.6290 C   0  0  0  0  0  0  0  0  0  0  0  0
  -12.4953   16.9805  -22.5989 H   0  0  0  0  0  0  0  0  0  0  0  0
  -12.6625   15.9194  -24.0385 H   0  0  0  0  0  0  0  0  0  0  0  0
  -12.0578   15.2418  -22.4887 H   0  0  0  0  0  0  0  0  0  0  0  0
  -15.3578   15.4594  -20.7869 H   0  0  0  0  0  0  0  0  0  0  0  0
  -14.0786   16.7184  -20.7154 H   0  0  0  0  0  0  0  0  0  0  0  0
  -13.6374   14.9817  -20.5905 H   0  0  0  0  0  0  0  0  0  0  0  0
  -15.0059   16.5591  -24.2665 H   0  0  0  0  0  0  0  0  0  0  0  0
  -14.8827   17.6258  -22.8265 H   0  0  0  0  0  0  0  0  0  0  0  0
  -16.1486   16.3533  -22.8959 H   0  0  0  0  0  0  0  0  0  0  0  0
  -14.0885   14.3017  -25.2235 H   0  0  0  0  0  0  0  0  0  0  0  0
  -15.8935   10.8100  -21.5458 H   0  0  0  0  0  0  0  0  0  0  0  0
  -14.9266   10.0196  -22.8370 H   0  0  0  0  0  0  0  0  0  0  0  0
  -16.6117   10.5448  -23.1708 H   0  0  0  0  0  0  0  0  0  0  0  0
  -15.6931   10.8849  -25.5784 H   0  0  0  0  0  0  0  0  0  0  0  0
  -14.9280   10.0531  -27.6310 H   0  0  0  0  0  0  0  0  0  0  0  0
  -14.8799    9.6485  -29.9436 H   0  0  0  0  0  0  0  0  0  0  0  0
  -11.4323   11.1765  -27.9332 H   0  0  0  0  0  0  0  0  0  0  0  0
  -13.5326    9.2661  -31.9983 H   0  0  0  0  0  0  0  0  0  0  0  0
  -10.0773   10.8009  -30.0067 H   0  0  0  0  0  0  0  0  0  0  0  0
  -12.2850   12.2004  -32.2559 H   0  0  0  0  0  0  0  0  0  0  0  0
   -9.0290    9.9473  -34.0013 H   0  0  0  0  0  0  0  0  0  0  0  0
  -11.6217   14.1317  -33.5852 H   0  0  0  0  0  0  0  0  0  0  0  0
   -8.4313   11.9231  -35.3086 H   0  0  0  0  0  0  0  0  0  0  0  0
  1 16  2  0  0  0  0
  2 20  1  0  0  0  0
  2 23  1  0  0  0  0
  3  4  1  0  0  0  0
  3 14  1  0  0  0  0
  3 15  1  0  0  0  0
  4  9  2  0  0  0  0
  5 14  1  0  0  0  0
  5 16  1  0  0  0  0
  5 41  1  0  0  0  0
  6 16  1  0  0  0  0
  6 17  1  0  0  0  0
  6 42  1  0  0  0  0
  7 26  2  0  0  0  0
  7 27  1  0  0  0  0
  8  9  1  0  0  0  0
  8 10  1  0  0  0  0
  8 11  1  0  0  0  0
  8 12  1  0  0  0  0
  9 13  1  0  0  0  0
 10 28  1  0  0  0  0
 10 29  1  0  0  0  0
 10 30  1  0  0  0  0
 11 31  1  0  0  0  0
 11 32  1  0  0  0  0
 11 33  1  0  0  0  0
 12 34  1  0  0  0  0
 12 35  1  0  0  0  0
 12 36  1  0  0  0  0
 13 14  2  0  0  0  0
 13 37  1  0  0  0  0
 15 38  1  0  0  0  0
 15 39  1  0  0  0  0
 15 40  1  0  0  0  0
 17 18  2  0  0  0  0
 17 19  1  0  0  0  0
 18 21  1  0  0  0  0
 18 43  1  0  0  0  0
 19 22  2  0  0  0  0
 19 44  1  0  0  0  0
 20 21  2  0  0  0  0
 20 22  1  0  0  0  0
 21 45  1  0  0  0  0
 22 46  1  0  0  0  0
 23 24  2  0  0  0  0
 23 25  1  0  0  0  0
 24 26  1  0  0  0  0
 24 47  1  0  0  0  0
 25 27  2  0  0  0  0
 25 48  1  0  0  0  0
 26 49  1  0  0  0  0
 27 50  1  0  0  0  0
M  END
> <PUBCHEM_COMPOUND_ID_TYPE>
0

> <PUBCHEM_TOTAL_CHARGE>
0

> <PUBCHEM_SUBSTANCE_ID>
170484986

> <PUBCHEM_SUBSTANCE_VERSION>
1

> <PUBCHEM_EXT_DATASOURCE_NAME>
Shanghai Institute of Organic Chemistry

> <PUBCHEM_EXT_DATASOURCE_REGID>
4eyj

> <PUBCHEM_SUBSTANCE_COMMENT>
PDB code 4eyj, binding affinity data from PDBbind-CN database: IC50=620nM

> <PUBCHEM_SUBSTANCE_SYNONYM>
4eyj

> <PUBCHEM_XREF_EXT_ID>
4eyj

> <PUBCHEM_EXT_DATASOURCE_URL>
http://www.sioc-ccbg.ac.cn/

> <PUBCHEM_EXT_SUBSTANCE_URL>
http://www.pdbbind-cn.org/quickpdb.asp?quickpdb=4eyj

> <PUBCHEM_CID_ASSOCIATIONS>
17941505  1

> <PUBCHEM_CONFORMER_ID>
0A2964FA00010001

> <PUBCHEM_COORDINATE_TYPE>
2
3
4

$$$$
170484982
  -OEChem-11262106393D

 71 73  0     1  0  0  0  0  0999 V2000
    7.9130    8.2310  -18.8370 S   0  0  0  0  0  0  0  0  0  0  0  0
    7.3760    7.7630  -16.2290 O   0  0  0  0  0  0  0  0  0  0  0  0
    3.6260    4.7010  -20.0540 O   0  0  0  0  0  0  0  0  0  0  0  0
    7.3340    2.3220  -18.3080 O   0  0  0  0  0  0  0  0  0  0  0  0
    3.9550    5.6850  -17.5260 N   0  3  0  0  0  0  0  0  0  0  0  0
    5.1800    1.6990  -18.4330 N   0  0  0  0  0  0  0  0  0  0  0  0
    4.5870    6.9280  -17.0110 C   0  0  1  0  0  0  0  0  0  0  0  0
    5.3230    6.5480  -15.7140 C   0  0  0  0  0  0  0  0  0  0  0  0
    6.3220    7.6450  -15.2470 C   0  0  0  0  0  0  0  0  0  0  0  0
    5.6250    7.4140  -17.9440 C   0  0  0  0  0  0  0  0  0  0  0  0
    4.8010    4.6050  -17.9820 C   0  0  0  0  0  0  0  0  0  0  0  0
    6.9700    7.7880  -17.5310 C   0  0  0  0  0  0  0  0  0  0  0  0
    4.0200    3.7910  -19.0140 C   0  0  2  0  0  0  0  0  0  0  0  0
    6.9700    7.1250  -13.9510 C   0  0  0  0  0  0  0  0  0  0  0  0
    5.6110    9.0150  -15.1020 C   0  0  0  0  0  0  0  0  0  0  0  0
    5.3720    7.5350  -19.3720 C   0  0  0  0  0  0  0  0  0  0  0  0
    6.5850    7.9970  -19.9910 C   0  0  0  0  0  0  0  0  0  0  0  0
    4.9170    2.6490  -19.5630 C   0  0  2  0  0  0  0  0  0  0  0  0
    6.8860    8.3020  -21.4460 C   0  0  0  0  0  0  0  0  0  0  0  0
    6.5530    9.7440  -21.8420 C   0  0  0  0  0  0  0  0  0  0  0  0
    4.1880    1.7900  -20.5780 C   0  0  0  0  0  0  0  0  0  0  0  0
    7.4150   10.7820  -21.0870 C   0  0  0  0  0  0  0  0  0  0  0  0
    5.1020   10.0610  -21.5220 C   0  0  0  0  0  0  0  0  0  0  0  0
    6.7540    9.9560  -23.3370 C   0  0  0  0  0  0  0  0  0  0  0  0
    4.9930    0.5970  -21.0730 C   0  0  0  0  0  0  0  0  0  0  0  0
    6.4180    1.6320  -17.8900 C   0  0  0  0  0  0  0  0  0  0  0  0
    6.3850    0.6940  -21.2930 C   0  0  0  0  0  0  0  0  0  0  0  0
    4.3290   -0.6260  -21.2780 C   0  0  0  0  0  0  0  0  0  0  0  0
    6.7000    0.6360  -16.7630 C   0  0  0  0  0  0  0  0  0  0  0  0
    7.1070   -0.4380  -21.7280 C   0  0  0  0  0  0  0  0  0  0  0  0
    5.0650   -1.7310  -21.7440 C   0  0  0  0  0  0  0  0  0  0  0  0
    6.4440   -1.6530  -21.9750 C   0  0  0  0  0  0  0  0  0  0  0  0
    3.8279    7.7040  -16.8333 H   0  0  0  0  0  0  0  0  0  0  0  0
    5.8799    5.6151  -15.8858 H   0  0  0  0  0  0  0  0  0  0  0  0
    4.5782    6.3895  -14.9202 H   0  0  0  0  0  0  0  0  0  0  0  0
    3.3802    5.3169  -16.7843 H   0  0  0  0  0  0  0  0  0  0  0  0
    3.3709    5.9510  -18.3033 H   0  0  0  0  0  0  0  0  0  0  0  0
    5.7121    5.0145  -18.4426 H   0  0  0  0  0  0  0  0  0  0  0  0
    5.0763    3.9632  -17.1321 H   0  0  0  0  0  0  0  0  0  0  0  0
    3.1248    3.3529  -18.5485 H   0  0  0  0  0  0  0  0  0  0  0  0
    7.6895    7.8683  -13.5770 H   0  0  0  0  0  0  0  0  0  0  0  0
    7.4931    6.1794  -14.1564 H   0  0  0  0  0  0  0  0  0  0  0  0
    6.1905    6.9558  -13.1936 H   0  0  0  0  0  0  0  0  0  0  0  0
    5.1791    9.3082  -16.0702 H   0  0  0  0  0  0  0  0  0  0  0  0
    6.3394    9.7740  -14.7805 H   0  0  0  0  0  0  0  0  0  0  0  0
    4.8099    8.9349  -14.3524 H   0  0  0  0  0  0  0  0  0  0  0  0
    4.4340    7.3155  -19.8798 H   0  0  0  0  0  0  0  0  0  0  0  0
    5.8462    3.0605  -19.9840 H   0  0  0  0  0  0  0  0  0  0  0  0
    6.2943    7.6212  -22.0756 H   0  0  0  0  0  0  0  0  0  0  0  0
    7.9574    8.1289  -21.6251 H   0  0  0  0  0  0  0  0  0  0  0  0
    3.9338    2.4188  -21.4440 H   0  0  0  0  0  0  0  0  0  0  0  0
    3.2642    1.4148  -20.1135 H   0  0  0  0  0  0  0  0  0  0  0  0
    7.1344   11.7956  -21.4093 H   0  0  0  0  0  0  0  0  0  0  0  0
    8.4780   10.6076  -21.3098 H   0  0  0  0  0  0  0  0  0  0  0  0
    7.2459   10.6814  -20.0047 H   0  0  0  0  0  0  0  0  0  0  0  0
    4.4474    9.3446  -22.0399 H   0  0  0  0  0  0  0  0  0  0  0  0
    4.8669   11.0817  -21.8580 H   0  0  0  0  0  0  0  0  0  0  0  0
    4.9411    9.9861  -20.4364 H   0  0  0  0  0  0  0  0  0  0  0  0
    7.7983    9.7339  -23.6017 H   0  0  0  0  0  0  0  0  0  0  0  0
    6.5251   11.0010  -23.5932 H   0  0  0  0  0  0  0  0  0  0  0  0
    6.0838    9.2862  -23.8957 H   0  0  0  0  0  0  0  0  0  0  0  0
    4.4450    1.1184  -18.0827 H   0  0  0  0  0  0  0  0  0  0  0  0
    3.0799    5.3850  -19.6846 H   0  0  0  0  0  0  0  0  0  0  0  0
    6.8971    1.6351  -21.1282 H   0  0  0  0  0  0  0  0  0  0  0  0
    3.2670   -0.7158  -21.0801 H   0  0  0  0  0  0  0  0  0  0  0  0
    5.7743    0.0995  -16.5077 H   0  0  0  0  0  0  0  0  0  0  0  0
    7.0659    1.1774  -15.8782 H   0  0  0  0  0  0  0  0  0  0  0  0
    7.4624   -0.0849  -17.0930 H   0  0  0  0  0  0  0  0  0  0  0  0
    8.1792   -0.3703  -21.8725 H   0  0  0  0  0  0  0  0  0  0  0  0
    4.5510   -2.6673  -21.9291 H   0  0  0  0  0  0  0  0  0  0  0  0
    6.9913   -2.5153  -22.3383 H   0  0  0  0  0  0  0  0  0  0  0  0
  1 12  1  0  0  0  0
  1 17  1  0  0  0  0
  2  9  1  0  0  0  0
  2 12  1  0  0  0  0
  3 13  1  0  0  0  0
  3 63  1  0  0  0  0
  4 26  2  0  0  0  0
  5  7  1  0  0  0  0
  5 11  1  0  0  0  0
  5 36  1  0  0  0  0
  5 37  1  0  0  0  0
  6 18  1  0  0  0  0
  6 26  1  0  0  0  0
  6 62  1  0  0  0  0
  7  8  1  0  0  0  0
  7 10  1  0  0  0  0
  7 33  1  0  0  0  0
  8  9  1  0  0  0  0
  8 34  1  0  0  0  0
  8 35  1  0  0  0  0
  9 14  1  0  0  0  0
  9 15  1  0  0  0  0
 10 12  2  0  0  0  0
 10 16  1  0  0  0  0
 11 13  1  0  0  0  0
 11 38  1  0  0  0  0
 11 39  1  0  0  0  0
 13 18  1  0  0  0  0
 13 40  1  0  0  0  0
 14 41  1  0  0  0  0
 14 42  1  0  0  0  0
 14 43  1  0  0  0  0
 15 44  1  0  0  0  0
 15 45  1  0  0  0  0
 15 46  1  0  0  0  0
 16 17  2  0  0  0  0
 16 47  1  0  0  0  0
 17 19  1  0  0  0  0
 18 21  1  0  0  0  0
 18 48  1  0  0  0  0
 19 20  1  0  0  0  0
 19 49  1  0  0  0  0
 19 50  1  0  0  0  0
 20 22  1  0  0  0  0
 20 23  1  0  0  0  0
 20 24  1  0  0  0  0
 21 25  1  0  0  0  0
 21 51  1  0  0  0  0
 21 52  1  0  0  0  0
 22 53  1  0  0  0  0
 22 54  1  0  0  0  0
 22 55  1  0  0  0  0
 23 56  1  0  0  0  0
 23 57  1  0  0  0  0
 23 58  1  0  0  0  0
 24 59  1  0  0  0  0
 24 60  1  0  0  0  0
 24 61  1  0  0  0  0
 25 27  2  0  0  0  0
 25 28  1  0  0  0  0
 26 29  1  0  0  0  0
 27 30  1  0  0  0  0
 27 64  1  0  0  0  0
 28 31  2  0  0  0  0
 28 65  1  0  0  0  0
 29 66  1  0  0  0  0
 29 67  1  0  0  0  0
 29 68  1  0  0  0  0
 30 32  2  0  0  0  0
 30 69  1  0  0  0  0
 31 32  1  0  0  0  0
 31 70  1  0  0  0  0
 32 71  1  0  0  0  0
M  CHG  1   5   1
M  END
> <PUBCHEM_COMPOUND_ID_TYPE>
0

> <PUBCHEM_TOTAL_CHARGE>
1

> <PUBCHEM_SUBSTANCE_ID>
170484982

> <PUBCHEM_SUBSTANCE_VERSION>
1

> <PUBCHEM_EXT_DATASOURCE_NAME>
Shanghai Institute of Organic Chemistry

> <PUBCHEM_EXT_DATASOURCE_REGID>
4exg

> <PUBCHEM_SUBSTANCE_COMMENT>
PDB code 4exg, binding affinity data from PDBbind-CN database: IC50=8.5nM

> <PUBCHEM_SUBSTANCE_SYNONYM>
4exg

> <PUBCHEM_XREF_EXT_ID>
4exg

> <PUBCHEM_EXT_DATASOURCE_URL>
http://www.sioc-ccbg.ac.cn/

> <PUBCHEM_EXT_SUBSTANCE_URL>
http://www.pdbbind-cn.org/quickpdb.asp?quickpdb=4exg

> <PUBCHEM_CID_ASSOCIATIONS>
72200931  1
72200932  2

> <PUBCHEM_CONFORMER_ID>
0A2964F600010001

> <PUBCHEM_COORDINATE_TYPE>
2
3
4

$$$$
170484981
  -OEChem-11262106393D

 73 75  0     1  0  0  0  0  0999 V2000
    3.5530    4.6330  -19.9890 O   0  0  0  0  0  0  0  0  0  0  0  0
    7.4040    2.2460  -18.3460 O   0  0  0  0  0  0  0  0  0  0  0  0
    3.9380    5.6150  -17.4350 N   0  3  0  0  0  0  0  0  0  0  0  0
    6.4910    8.0310  -19.8920 N   0  0  0  0  0  0  0  0  0  0  0  0
    7.5310    8.1470  -18.9500 N   0  0  0  0  0  0  0  0  0  0  0  0
    5.2140    1.6710  -18.3530 N   0  0  0  0  0  0  0  0  0  0  0  0
    6.4660    7.5670  -15.3380 C   0  0  0  0  0  0  0  0  0  0  0  0
    4.6650    6.7960  -16.9890 C   0  0  1  0  0  0  0  0  0  0  0  0
    5.5600    6.3810  -15.7520 C   0  0  0  0  0  0  0  0  0  0  0  0
    7.6050    7.5980  -16.3910 C   0  0  0  0  0  0  0  0  0  0  0  0
    5.6100    7.3270  -18.0230 C   0  0  0  0  0  0  0  0  0  0  0  0
    6.9880    7.7180  -17.7730 C   0  0  0  0  0  0  0  0  0  0  0  0
    5.8280    8.9490  -15.1610 C   0  0  0  0  0  0  0  0  0  0  0  0
    7.1650    7.2050  -14.0090 C   0  0  0  0  0  0  0  0  0  0  0  0
    4.7380    4.4890  -17.8860 C   0  0  0  0  0  0  0  0  0  0  0  0
    5.2990    7.5440  -19.3850 C   0  0  0  0  0  0  0  0  0  0  0  0
    3.9280    3.6970  -18.9380 C   0  0  2  0  0  0  0  0  0  0  0  0
    6.8770    8.4540  -21.2270 C   0  0  0  0  0  0  0  0  0  0  0  0
    6.5120    9.8980  -21.5670 C   0  0  0  0  0  0  0  0  0  0  0  0
    4.8180    2.5500  -19.4940 C   0  0  2  0  0  0  0  0  0  0  0  0
    4.0930    1.6950  -20.5280 C   0  0  0  0  0  0  0  0  0  0  0  0
    5.0190   10.1980  -21.3010 C   0  0  0  0  0  0  0  0  0  0  0  0
    7.3990   10.8770  -20.7310 C   0  0  0  0  0  0  0  0  0  0  0  0
    6.7760   10.0770  -23.0570 C   0  0  0  0  0  0  0  0  0  0  0  0
    4.9370    0.4930  -21.0110 C   0  0  0  0  0  0  0  0  0  0  0  0
    6.4500    1.5560  -17.8960 C   0  0  0  0  0  0  0  0  0  0  0  0
    4.2360   -0.7120  -21.1990 C   0  0  0  0  0  0  0  0  0  0  0  0
    6.3210    0.5690  -21.2330 C   0  0  0  0  0  0  0  0  0  0  0  0
    6.6080    0.5340  -16.7480 C   0  0  0  0  0  0  0  0  0  0  0  0
    4.9540   -1.8680  -21.5800 C   0  0  0  0  0  0  0  0  0  0  0  0
    7.0220   -0.6210  -21.6200 C   0  0  0  0  0  0  0  0  0  0  0  0
    6.3180   -1.8200  -21.8300 C   0  0  0  0  0  0  0  0  0  0  0  0
    3.9472    7.5797  -16.7050 H   0  0  0  0  0  0  0  0  0  0  0  0
    6.1878    5.5209  -16.0278 H   0  0  0  0  0  0  0  0  0  0  0  0
    4.9109    6.1054  -14.9078 H   0  0  0  0  0  0  0  0  0  0  0  0
    8.2602    8.4611  -16.2020 H   0  0  0  0  0  0  0  0  0  0  0  0
    8.1929    6.6705  -16.3275 H   0  0  0  0  0  0  0  0  0  0  0  0
    3.3696    5.2974  -16.6655 H   0  0  0  0  0  0  0  0  0  0  0  0
    3.3432    5.8931  -18.1998 H   0  0  0  0  0  0  0  0  0  0  0  0
    5.0270    8.8895  -14.4094 H   0  0  0  0  0  0  0  0  0  0  0  0
    5.4065    9.2839  -16.1203 H   0  0  0  0  0  0  0  0  0  0  0  0
    6.5924    9.6656  -14.8262 H   0  0  0  0  0  0  0  0  0  0  0  0
    7.6358    6.2150  -14.1002 H   0  0  0  0  0  0  0  0  0  0  0  0
    6.4224    7.1845  -13.1978 H   0  0  0  0  0  0  0  0  0  0  0  0
    7.9347    7.9576  -13.7826 H   0  0  0  0  0  0  0  0  0  0  0  0
    5.6722    4.8553  -18.3367 H   0  0  0  0  0  0  0  0  0  0  0  0
    4.9739    3.8368  -17.0322 H   0  0  0  0  0  0  0  0  0  0  0  0
    4.3577    7.3713  -19.9047 H   0  0  0  0  0  0  0  0  0  0  0  0
    3.0235    3.2700  -18.4803 H   0  0  0  0  0  0  0  0  0  0  0  0
    6.3796    7.7943  -21.9532 H   0  0  0  0  0  0  0  0  0  0  0  0
    7.9676    8.3449  -21.3196 H   0  0  0  0  0  0  0  0  0  0  0  0
    5.7151    2.9865  -19.9573 H   0  0  0  0  0  0  0  0  0  0  0  0
    3.8497    2.3249  -21.3964 H   0  0  0  0  0  0  0  0  0  0  0  0
    3.1637    1.3140  -20.0795 H   0  0  0  0  0  0  0  0  0  0  0  0
    4.8038   11.2453  -21.5594 H   0  0  0  0  0  0  0  0  0  0  0  0
    4.7949   10.0293  -20.2374 H   0  0  0  0  0  0  0  0  0  0  0  0
    4.3959    9.5330  -21.9170 H   0  0  0  0  0  0  0  0  0  0  0  0
    8.4610   10.6626  -20.9211 H   0  0  0  0  0  0  0  0  0  0  0  0
    7.1839   10.7434  -19.6606 H   0  0  0  0  0  0  0  0  0  0  0  0
    7.1763   11.9138  -21.0232 H   0  0  0  0  0  0  0  0  0  0  0  0
    6.1438    9.3808  -23.6276 H   0  0  0  0  0  0  0  0  0  0  0  0
    7.8350    9.8686  -23.2694 H   0  0  0  0  0  0  0  0  0  0  0  0
    6.5398   11.1107  -23.3497 H   0  0  0  0  0  0  0  0  0  0  0  0
    3.0111    5.3208  -19.6204 H   0  0  0  0  0  0  0  0  0  0  0  0
    4.4983    1.1347  -17.9056 H   0  0  0  0  0  0  0  0  0  0  0  0
    3.1625   -0.7532  -21.0540 H   0  0  0  0  0  0  0  0  0  0  0  0
    6.8493    1.5081  -21.1143 H   0  0  0  0  0  0  0  0  0  0  0  0
    5.6358    0.0634  -16.5397 H   0  0  0  0  0  0  0  0  0  0  0  0
    6.9668    1.0495  -15.8450 H   0  0  0  0  0  0  0  0  0  0  0  0
    7.3337   -0.2385  -17.0421 H   0  0  0  0  0  0  0  0  0  0  0  0
    4.4287   -2.8110  -21.6789 H   0  0  0  0  0  0  0  0  0  0  0  0
    8.0978   -0.5960  -21.7510 H   0  0  0  0  0  0  0  0  0  0  0  0
    6.8382   -2.7022  -22.1853 H   0  0  0  0  0  0  0  0  0  0  0  0
  1 17  1  0  0  0  0
  1 64  1  0  0  0  0
  2 26  2  0  0  0  0
  3  8  1  0  0  0  0
  3 15  1  0  0  0  0
  3 38  1  0  0  0  0
  3 39  1  0  0  0  0
  4  5  1  0  0  0  0
  4 16  1  0  0  0  0
  4 18  1  0  0  0  0
  5 12  2  0  0  0  0
  6 20  1  0  0  0  0
  6 26  1  0  0  0  0
  6 65  1  0  0  0  0
  7  9  1  0  0  0  0
  7 10  1  0  0  0  0
  7 13  1  0  0  0  0
  7 14  1  0  0  0  0
  8  9  1  0  0  0  0
  8 11  1  0  0  0  0
  8 33  1  0  0  0  0
  9 34  1  0  0  0  0
  9 35  1  0  0  0  0
 10 12  1  0  0  0  0
 10 36  1  0  0  0  0
 10 37  1  0  0  0  0
 11 12  1  0  0  0  0
 11 16  2  0  0  0  0
 13 40  1  0  0  0  0
 13 41  1  0  0  0  0
 13 42  1  0  0  0  0
 14 43  1  0  0  0  0
 14 44  1  0  0  0  0
 14 45  1  0  0  0  0
 15 17  1  0  0  0  0
 15 46  1  0  0  0  0
 15 47  1  0  0  0  0
 16 48  1  0  0  0  0
 17 20  1  0  0  0  0
 17 49  1  0  0  0  0
 18 19  1  0  0  0  0
 18 50  1  0  0  0  0
 18 51  1  0  0  0  0
 19 22  1  0  0  0  0
 19 23  1  0  0  0  0
 19 24  1  0  0  0  0
 20 21  1  0  0  0  0
 20 52  1  0  0  0  0
 21 25  1  0  0  0  0
 21 53  1  0  0  0  0
 21 54  1  0  0  0  0
 22 55  1  0  0  0  0
 22 56  1  0  0  0  0
 22 57  1  0  0  0  0
 23 58  1  0  0  0  0
 23 59  1  0  0  0  0
 23 60  1  0  0  0  0
 24 61  1  0  0  0  0
 24 62  1  0  0  0  0
 24 63  1  0  0  0  0
 25 27  2  0  0  0  0
 25 28  1  0  0  0  0
 26 29  1  0  0  0  0
 27 30  1  0  0  0  0
 27 66  1  0  0  0  0
 28 31  2  0  0  0  0
 28 67  1  0  0  0  0
 29 68  1  0  0  0  0
 29 69  1  0  0  0  0
 29 70  1  0  0  0  0
 30 32  2  0  0  0  0
 30 71  1  0  0  0  0
 31 32  1  0  0  0  0
 31 72  1  0  0  0  0
 32 73  1  0  0  0  0
M  CHG  1   3   1
M  END
> <PUBCHEM_COMPOUND_ID_TYPE>
0

> <PUBCHEM_TOTAL_CHARGE>
1

> <PUBCHEM_SUBSTANCE_ID>
170484981

> <PUBCHEM_SUBSTANCE_VERSION>
1

> <PUBCHEM_EXT_DATASOURCE_NAME>
Shanghai Institute of Organic Chemistry

> <PUBCHEM_EXT_DATASOURCE_REGID>
4ewo

> <PUBCHEM_SUBSTANCE_COMMENT>
PDB code 4ewo, binding affinity data from PDBbind-CN database: IC50=44nM

> <PUBCHEM_SUBSTANCE_SYNONYM>
4ewo

> <PUBCHEM_XREF_EXT_ID>
4ewo

> <PUBCHEM_EXT_DATASOURCE_URL>
http://www.sioc-ccbg.ac.cn/

> <PUBCHEM_EXT_SUBSTANCE_URL>
http://www.pdbbind-cn.org/quickpdb.asp?quickpdb=4ewo

> <PUBCHEM_CID_ASSOCIATIONS>
72200930  1
71608661  2

> <PUBCHEM_CONFORMER_ID>
0A2964F500010001

> <PUBCHEM_COORDINATE_TYPE>
2
3
4

$$$$
170484972
  -OEChem-11262106393D

 65 67  0     1  0  0  0  0  0999 V2000
   10.7840   28.6540   24.7730 Cl  0  0  0  0  0  0  0  0  0  0  0  0
    6.8170   24.5610   22.6940 Cl  0  0  0  0  0  0  0  0  0  0  0  0
   11.7930   26.4570   15.8880 O   0  0  0  0  0  0  0  0  0  0  0  0
   12.8170   22.7390   17.1720 O   0  0  0  0  0  0  0  0  0  0  0  0
   13.7910   24.8510   17.4610 O   0  0  0  0  0  0  0  0  0  0  0  0
   12.3700   30.8950   15.5950 O   0  5  0  0  0  0  0  0  0  0  0  0
   11.8950   31.5220   17.6840 O   0  0  0  0  0  0  0  0  0  0  0  0
   11.6390   25.9590   18.0710 N   0  0  0  0  0  0  0  0  0  0  0  0
   12.1450   27.7790   19.7870 C   0  0  2  0  0  0  0  0  0  0  0  0
   11.7560   26.2730   19.4860 C   0  0  1  0  0  0  0  0  0  0  0  0
   13.0990   28.2900   18.7360 C   0  0  0  0  0  0  0  0  0  0  0  0
   12.4820   28.2390   17.3520 C   0  0  1  0  0  0  0  0  0  0  0  0
   11.9220   26.8180   17.0340 C   0  0  0  0  0  0  0  0  0  0  0  0
   11.2760   24.5800   17.7880 C   0  0  1  0  0  0  0  0  0  0  0  0
   12.5630   28.0520   21.2290 C   0  0  0  0  0  0  0  0  0  0  0  0
   10.5380   25.7980   20.2830 C   0  0  0  0  0  0  0  0  0  0  0  0
   11.3600   29.2640   17.1030 C   0  0  0  0  0  0  0  0  0  0  0  0
   10.2490   24.3790   16.5810 C   0  0  0  0  0  0  0  0  0  0  0  0
   12.8120   24.1200   17.4490 C   0  0  0  0  0  0  0  0  0  0  0  0
   11.5900   28.2790   22.2400 C   0  0  0  0  0  0  0  0  0  0  0  0
   13.9190   27.9980   21.6120 C   0  0  0  0  0  0  0  0  0  0  0  0
   10.7110   24.9150   21.3830 C   0  0  0  0  0  0  0  0  0  0  0  0
    9.2580   26.2910   19.9530 C   0  0  0  0  0  0  0  0  0  0  0  0
   11.9110   30.6820   16.8340 C   0  0  0  0  0  0  0  0  0  0  0  0
    8.7940   24.7600   16.9540 C   0  0  0  0  0  0  0  0  0  0  0  0
   11.9770   28.4190   23.5650 C   0  0  0  0  0  0  0  0  0  0  0  0
   14.2970   28.1450   22.9560 C   0  0  0  0  0  0  0  0  0  0  0  0
    9.6140   24.5190   22.1620 C   0  0  0  0  0  0  0  0  0  0  0  0
    8.1530   25.8890   20.7410 C   0  0  0  0  0  0  0  0  0  0  0  0
   13.9950   21.9680   16.6390 C   0  0  0  0  0  0  0  0  0  0  0  0
   13.3160   28.3540   23.9370 C   0  0  0  0  0  0  0  0  0  0  0  0
    8.3220   25.0140   21.8320 C   0  0  0  0  0  0  0  0  0  0  0  0
   13.4470   20.5590   16.5200 C   0  0  0  0  0  0  0  0  0  0  0  0
   15.0750   22.0720   17.7190 C   0  0  0  0  0  0  0  0  0  0  0  0
   14.2290   22.5700   15.2440 C   0  0  0  0  0  0  0  0  0  0  0  0
   11.2358   28.3748   19.7068 H   0  0  0  0  0  0  0  0  0  0  0  0
   12.6106   25.6976   19.8419 H   0  0  0  0  0  0  0  0  0  0  0  0
   13.3431   29.3269   18.9668 H   0  0  0  0  0  0  0  0  0  0  0  0
   13.9877   27.6589   18.7409 H   0  0  0  0  0  0  0  0  0  0  0  0
   13.3075   28.4957   16.6881 H   0  0  0  0  0  0  0  0  0  0  0  0
   10.7299   24.0359   18.5586 H   0  0  0  0  0  0  0  0  0  0  0  0
   10.7367   29.3070   17.9962 H   0  0  0  0  0  0  0  0  0  0  0  0
   10.8003   28.9460   16.2234 H   0  0  0  0  0  0  0  0  0  0  0  0
   10.2568   23.3231   16.3108 H   0  0  0  0  0  0  0  0  0  0  0  0
   10.5639   25.0298   15.7653 H   0  0  0  0  0  0  0  0  0  0  0  0
   10.5351   28.3434   21.9732 H   0  0  0  0  0  0  0  0  0  0  0  0
   14.6852   27.8397   20.8531 H   0  0  0  0  0  0  0  0  0  0  0  0
   11.7064   24.5417   21.6237 H   0  0  0  0  0  0  0  0  0  0  0  0
    9.1228   26.9673   19.1089 H   0  0  0  0  0  0  0  0  0  0  0  0
    8.4577   24.1370   17.7828 H   0  0  0  0  0  0  0  0  0  0  0  0
    8.7585   25.8089   17.2485 H   0  0  0  0  0  0  0  0  0  0  0  0
    8.1459   24.6012   16.0922 H   0  0  0  0  0  0  0  0  0  0  0  0
   15.3492   28.0969   23.2365 H   0  0  0  0  0  0  0  0  0  0  0  0
    9.7493   23.8431   23.0064 H   0  0  0  0  0  0  0  0  0  0  0  0
    7.1574   26.2617   20.5003 H   0  0  0  0  0  0  0  0  0  0  0  0
   13.6009   28.4647   24.9833 H   0  0  0  0  0  0  0  0  0  0  0  0
   13.1253   20.2115   17.5018 H   0  0  0  0  0  0  0  0  0  0  0  0
   12.5980   20.5572   15.8364 H   0  0  0  0  0  0  0  0  0  0  0  0
   14.2252   19.8990   16.1366 H   0  0  0  0  0  0  0  0  0  0  0  0
   15.3253   23.1204   17.8810 H   0  0  0  0  0  0  0  0  0  0  0  0
   14.7020   21.6386   18.6470 H   0  0  0  0  0  0  0  0  0  0  0  0
   15.9640   21.5307   17.3953 H   0  0  0  0  0  0  0  0  0  0  0  0
   13.3357   22.4309   14.6351 H   0  0  0  0  0  0  0  0  0  0  0  0
   14.4425   23.6345   15.3402 H   0  0  0  0  0  0  0  0  0  0  0  0
   15.0742   22.0699   14.7710 H   0  0  0  0  0  0  0  0  0  0  0  0
  1 26  1  0  0  0  0
  2 32  1  0  0  0  0
  3 13  2  0  0  0  0
  4 19  1  0  0  0  0
  4 30  1  0  0  0  0
  5 19  2  0  0  0  0
  6 24  1  0  0  0  0
  7 24  2  0  0  0  0
  8 10  1  0  0  0  0
  8 13  1  0  0  0  0
  8 14  1  0  0  0  0
  9 10  1  0  0  0  0
  9 11  1  0  0  0  0
  9 15  1  0  0  0  0
  9 36  1  0  0  0  0
 10 16  1  0  0  0  0
 10 37  1  0  0  0  0
 11 12  1  0  0  0  0
 11 38  1  0  0  0  0
 11 39  1  0  0  0  0
 12 13  1  0  0  0  0
 12 17  1  0  0  0  0
 12 40  1  0  0  0  0
 14 18  1  0  0  0  0
 14 19  1  0  0  0  0
 14 41  1  0  0  0  0
 15 20  2  0  0  0  0
 15 21  1  0  0  0  0
 16 22  2  0  0  0  0
 16 23  1  0  0  0  0
 17 24  1  0  0  0  0
 17 42  1  0  0  0  0
 17 43  1  0  0  0  0
 18 25  1  0  0  0  0
 18 44  1  0  0  0  0
 18 45  1  0  0  0  0
 20 26  1  0  0  0  0
 20 46  1  0  0  0  0
 21 27  2  0  0  0  0
 21 47  1  0  0  0  0
 22 28  1  0  0  0  0
 22 48  1  0  0  0  0
 23 29  2  0  0  0  0
 23 49  1  0  0  0  0
 25 50  1  0  0  0  0
 25 51  1  0  0  0  0
 25 52  1  0  0  0  0
 26 31  2  0  0  0  0
 27 31  1  0  0  0  0
 27 53  1  0  0  0  0
 28 32  2  0  0  0  0
 28 54  1  0  0  0  0
 29 32  1  0  0  0  0
 29 55  1  0  0  0  0
 30 33  1  0  0  0  0
 30 34  1  0  0  0  0
 30 35  1  0  0  0  0
 31 56  1  0  0  0  0
 33 57  1  0  0  0  0
 33 58  1  0  0  0  0
 33 59  1  0  0  0  0
 34 60  1  0  0  0  0
 34 61  1  0  0  0  0
 34 62  1  0  0  0  0
 35 63  1  0  0  0  0
 35 64  1  0  0  0  0
 35 65  1  0  0  0  0
M  CHG  1   6  -1
M  END
> <PUBCHEM_COMPOUND_ID_TYPE>
0

> <PUBCHEM_TOTAL_CHARGE>
-1

> <PUBCHEM_SUBSTANCE_ID>
170484972

> <PUBCHEM_SUBSTANCE_VERSION>
1

> <PUBCHEM_EXT_DATASOURCE_NAME>
Shanghai Institute of Organic Chemistry

> <PUBCHEM_EXT_DATASOURCE_REGID>
4ere

> <PUBCHEM_SUBSTANCE_COMMENT>
PDB code 4ere, binding affinity data from PDBbind-CN database: IC50=4.2nM

> <PUBCHEM_SUBSTANCE_SYNONYM>
4ere

> <PUBCHEM_XREF_EXT_ID>
4ere

> <PUBCHEM_EXT_DATASOURCE_URL>
http://www.sioc-ccbg.ac.cn/

> <PUBCHEM_EXT_SUBSTANCE_URL>
http://www.pdbbind-cn.org/quickpdb.asp?quickpdb=4ere

> <PUBCHEM_CID_ASSOCIATIONS>
72200922  1
56591324  2

> <PUBCHEM_CONFORMER_ID>
0A2964EC00010001

> <PUBCHEM_COORDINATE_TYPE>
2
3
4

$$$$
170484969
  -OEChem-11262106393D

 59 61  0     1  0  0  0  0  0999 V2000
   24.2330   -4.7090    4.2950 O   0  0  0  0  0  0  0  0  0  0  0  0
   22.9240   -7.4640    5.8250 O   0  0  0  0  0  0  0  0  0  0  0  0
   29.4400   -4.3170    4.6690 O   0  0  0  0  0  0  0  0  0  0  0  0
   29.7210   -1.8610    5.1220 O   0  0  0  0  0  0  0  0  0  0  0  0
   20.3540   -6.6780    5.4070 O   0  0  0  0  0  0  0  0  0  0  0  0
   25.2780   -6.6790    4.6630 N   0  0  0  0  0  0  0  0  0  0  0  0
   28.3220   -3.4770    4.5200 N   0  0  0  0  0  0  0  0  0  0  0  0
   21.9500   -7.0260    3.7860 N   0  0  0  0  0  0  0  0  0  0  0  0
   25.5030   -4.1860    7.6470 C   0  0  0  0  0  0  0  0  0  0  0  0
   26.1280   -3.5580    6.4330 C   0  0  0  0  0  0  0  0  0  0  0  0
   25.9850   -5.4320    8.2780 C   0  0  0  0  0  0  0  0  0  0  0  0
   25.1940   -3.2320    8.8180 C   0  0  0  0  0  0  0  0  0  0  0  0
   26.3870   -4.6780    5.3840 C   0  0  1  0  0  0  0  0  0  0  0  0
   25.0370   -5.5640    9.4810 C   0  0  0  0  0  0  0  0  0  0  0  0
   24.6460   -4.1520    9.8900 C   0  0  0  0  0  0  0  0  0  0  0  0
   24.3100   -7.3660    3.8590 C   0  0  1  0  0  0  0  0  0  0  0  0
   25.1900   -5.3040    4.7570 C   0  0  0  0  0  0  0  0  0  0  0  0
   26.4900   -7.3930    4.9550 C   0  0  0  0  0  0  0  0  0  0  0  0
   24.8190   -8.7940    3.7780 C   0  0  0  0  0  0  0  0  0  0  0  0
   26.1920   -8.7700    4.4050 C   0  0  0  0  0  0  0  0  0  0  0  0
   27.0660   -4.0400    4.1940 C   0  0  0  0  0  0  0  0  0  0  0  0
   23.0050   -7.3090    4.6130 C   0  0  0  0  0  0  0  0  0  0  0  0
   28.5820   -2.1970    4.8430 C   0  0  0  0  0  0  0  0  0  0  0  0
   20.6740   -6.8490    4.2430 C   0  0  0  0  0  0  0  0  0  0  0  0
   19.7160   -6.7230    3.1470 C   0  0  0  0  0  0  0  0  0  0  0  0
   19.8590   -7.4880    1.9960 C   0  0  0  0  0  0  0  0  0  0  0  0
   18.7010   -5.8120    3.3380 C   0  0  0  0  0  0  0  0  0  0  0  0
   18.9200   -7.3050    1.0050 C   0  0  0  0  0  0  0  0  0  0  0  0
   17.7870   -5.6250    2.3220 C   0  0  0  0  0  0  0  0  0  0  0  0
   17.9040   -6.3800    1.1690 C   0  0  0  0  0  0  0  0  0  0  0  0
   24.5170   -4.4727    7.2526 H   0  0  0  0  0  0  0  0  0  0  0  0
   27.0792   -3.0797    6.7093 H   0  0  0  0  0  0  0  0  0  0  0  0
   25.4471   -2.8038    6.0117 H   0  0  0  0  0  0  0  0  0  0  0  0
   25.8880   -6.2895    7.5959 H   0  0  0  0  0  0  0  0  0  0  0  0
   27.0320   -5.3376    8.6019 H   0  0  0  0  0  0  0  0  0  0  0  0
   26.1072   -2.7257    9.1638 H   0  0  0  0  0  0  0  0  0  0  0  0
   24.4463   -2.4801    8.5255 H   0  0  0  0  0  0  0  0  0  0  0  0
   27.0155   -5.4546    5.8443 H   0  0  0  0  0  0  0  0  0  0  0  0
   24.1423   -6.1373    9.1968 H   0  0  0  0  0  0  0  0  0  0  0  0
   25.5487   -6.0710   10.3123 H   0  0  0  0  0  0  0  0  0  0  0  0
   25.0857   -3.9028   10.8670 H   0  0  0  0  0  0  0  0  0  0  0  0
   23.5512   -4.0612    9.9467 H   0  0  0  0  0  0  0  0  0  0  0  0
   24.2076   -6.9194    2.8590 H   0  0  0  0  0  0  0  0  0  0  0  0
   27.3527   -6.9386    4.4459 H   0  0  0  0  0  0  0  0  0  0  0  0
   26.6803   -7.4289    6.0378 H   0  0  0  0  0  0  0  0  0  0  0  0
   24.1542   -9.4710    4.3345 H   0  0  0  0  0  0  0  0  0  0  0  0
   24.8810   -9.1209    2.7295 H   0  0  0  0  0  0  0  0  0  0  0  0
   26.9436   -9.0281    3.6444 H   0  0  0  0  0  0  0  0  0  0  0  0
   26.2310   -9.5044    5.2230 H   0  0  0  0  0  0  0  0  0  0  0  0
   26.4150   -3.2448    3.8017 H   0  0  0  0  0  0  0  0  0  0  0  0
   27.2145   -4.8075    3.4201 H   0  0  0  0  0  0  0  0  0  0  0  0
   22.1211   -6.9453    2.8041 H   0  0  0  0  0  0  0  0  0  0  0  0
   27.7777   -1.4629    4.8553 H   0  0  0  0  0  0  0  0  0  0  0  0
   30.2019   -3.7927    4.8860 H   0  0  0  0  0  0  0  0  0  0  0  0
   20.6720   -8.1961    1.8831 H   0  0  0  0  0  0  0  0  0  0  0  0
   18.6222   -5.2552    4.2647 H   0  0  0  0  0  0  0  0  0  0  0  0
   18.9772   -7.8880    0.0929 H   0  0  0  0  0  0  0  0  0  0  0  0
   16.9897   -4.8979    2.4255 H   0  0  0  0  0  0  0  0  0  0  0  0
   17.1809   -6.2435    0.3730 H   0  0  0  0  0  0  0  0  0  0  0  0
  1 17  2  0  0  0  0
  2 22  2  0  0  0  0
  3  7  1  0  0  0  0
  3 54  1  0  0  0  0
  4 23  2  0  0  0  0
  5 24  2  0  0  0  0
  6 16  1  0  0  0  0
  6 17  1  0  0  0  0
  6 18  1  0  0  0  0
  7 21  1  0  0  0  0
  7 23  1  0  0  0  0
  8 22  1  0  0  0  0
  8 24  1  0  0  0  0
  8 52  1  0  0  0  0
  9 10  1  0  0  0  0
  9 11  1  0  0  0  0
  9 12  1  0  0  0  0
  9 31  1  0  0  0  0
 10 13  1  0  0  0  0
 10 32  1  0  0  0  0
 10 33  1  0  0  0  0
 11 14  1  0  0  0  0
 11 34  1  0  0  0  0
 11 35  1  0  0  0  0
 12 15  1  0  0  0  0
 12 36  1  0  0  0  0
 12 37  1  0  0  0  0
 13 17  1  0  0  0  0
 13 21  1  0  0  0  0
 13 38  1  0  0  0  0
 14 15  1  0  0  0  0
 14 39  1  0  0  0  0
 14 40  1  0  0  0  0
 15 41  1  0  0  0  0
 15 42  1  0  0  0  0
 16 19  1  0  0  0  0
 16 22  1  0  0  0  0
 16 43  1  0  0  0  0
 18 20  1  0  0  0  0
 18 44  1  0  0  0  0
 18 45  1  0  0  0  0
 19 20  1  0  0  0  0
 19 46  1  0  0  0  0
 19 47  1  0  0  0  0
 20 48  1  0  0  0  0
 20 49  1  0  0  0  0
 21 50  1  0  0  0  0
 21 51  1  0  0  0  0
 23 53  1  0  0  0  0
 24 25  1  0  0  0  0
 25 26  2  0  0  0  0
 25 27  1  0  0  0  0
 26 28  1  0  0  0  0
 26 55  1  0  0  0  0
 27 29  2  0  0  0  0
 27 56  1  0  0  0  0
 28 30  2  0  0  0  0
 28 57  1  0  0  0  0
 29 30  1  0  0  0  0
 29 58  1  0  0  0  0
 30 59  1  0  0  0  0
M  END
> <PUBCHEM_COMPOUND_ID_TYPE>
0

> <PUBCHEM_TOTAL_CHARGE>
0

> <PUBCHEM_SUBSTANCE_ID>
170484969

> <PUBCHEM_SUBSTANCE_VERSION>
1

> <PUBCHEM_EXT_DATASOURCE_NAME>
Shanghai Institute of Organic Chemistry

> <PUBCHEM_EXT_DATASOURCE_REGID>
4eox

> <PUBCHEM_SUBSTANCE_COMMENT>
PDB code 4eox, binding affinity data from PDBbind-CN database: IC50=0.28nM

> <PUBCHEM_SUBSTANCE_SYNONYM>
4eox

> <PUBCHEM_XREF_EXT_ID>
4eox

> <PUBCHEM_EXT_DATASOURCE_URL>
http://www.sioc-ccbg.ac.cn/

> <PUBCHEM_EXT_SUBSTANCE_URL>
http://www.pdbbind-cn.org/quickpdb.asp?quickpdb=4eox

> <PUBCHEM_CID_ASSOCIATIONS>
16035825  1

> <PUBCHEM_CONFORMER_ID>
0A2964E900010001

> <PUBCHEM_COORDINATE_TYPE>
2
3
4

$$$$
170484926
  -OEChem-11262106393D

 27 29  0     0  0  0  0  0  0999 V2000
   64.8690   31.6640   28.7160 O   0  0  0  0  0  0  0  0  0  0  0  0
   66.6840   38.2270   20.6570 O   0  0  0  0  0  0  0  0  0  0  0  0
   62.2640   33.6840   25.1370 N   0  0  0  0  0  0  0  0  0  0  0  0
   62.7330   34.3890   24.0060 N   0  0  0  0  0  0  0  0  0  0  0  0
   64.5150   33.8730   25.2380 C   0  0  0  0  0  0  0  0  0  0  0  0
   64.0260   34.5900   24.0580 C   0  0  0  0  0  0  0  0  0  0  0  0
   63.3640   33.2990   25.8600 C   0  0  0  0  0  0  0  0  0  0  0  0
   64.7630   35.4940   23.1280 C   0  0  0  0  0  0  0  0  0  0  0  0
   65.7970   33.6420   25.7950 C   0  0  0  0  0  0  0  0  0  0  0  0
   63.5110   32.5470   27.0340 C   0  0  0  0  0  0  0  0  0  0  0  0
   64.7710   32.3600   27.5670 C   0  0  0  0  0  0  0  0  0  0  0  0
   65.9240   32.8590   26.9270 C   0  0  0  0  0  0  0  0  0  0  0  0
   66.0620   35.9500   23.4330 C   0  0  0  0  0  0  0  0  0  0  0  0
   64.0920   36.0360   22.0180 C   0  0  0  0  0  0  0  0  0  0  0  0
   66.7160   36.8310   22.5900 C   0  0  0  0  0  0  0  0  0  0  0  0
   64.7410   36.9450   21.1930 C   0  0  0  0  0  0  0  0  0  0  0  0
   66.0520   37.3410   21.4720 C   0  0  0  0  0  0  0  0  0  0  0  0
   66.6761   34.0782   25.3346 H   0  0  0  0  0  0  0  0  0  0  0  0
   61.2798   33.4946   25.3742 H   0  0  0  0  0  0  0  0  0  0  0  0
   62.6428   32.1160   27.5193 H   0  0  0  0  0  0  0  0  0  0  0  0
   66.9072   32.6293   27.3215 H   0  0  0  0  0  0  0  0  0  0  0  0
   66.5529   35.6071   24.3366 H   0  0  0  0  0  0  0  0  0  0  0  0
   63.0695   35.7448   21.8064 H   0  0  0  0  0  0  0  0  0  0  0  0
   67.7390   37.1241   22.7963 H   0  0  0  0  0  0  0  0  0  0  0  0
   64.2281   37.3496   20.3280 H   0  0  0  0  0  0  0  0  0  0  0  0
   64.0011   31.4071   29.0043 H   0  0  0  0  0  0  0  0  0  0  0  0
   66.1014   38.4754   19.9489 H   0  0  0  0  0  0  0  0  0  0  0  0
  1 11  1  0  0  0  0
  1 26  1  0  0  0  0
  2 17  1  0  0  0  0
  2 27  1  0  0  0  0
  3  4  1  0  0  0  0
  3  7  1  0  0  0  0
  3 19  1  0  0  0  0
  4  6  2  0  0  0  0
  5  6  1  0  0  0  0
  5  7  1  0  0  0  0
  5  9  2  0  0  0  0
  6  8  1  0  0  0  0
  7 10  2  0  0  0  0
  8 13  2  0  0  0  0
  8 14  1  0  0  0  0
  9 12  1  0  0  0  0
  9 18  1  0  0  0  0
 10 11  1  0  0  0  0
 10 20  1  0  0  0  0
 11 12  2  0  0  0  0
 12 21  1  0  0  0  0
 13 15  1  0  0  0  0
 13 22  1  0  0  0  0
 14 16  2  0  0  0  0
 14 23  1  0  0  0  0
 15 17  2  0  0  0  0
 15 24  1  0  0  0  0
 16 17  1  0  0  0  0
 16 25  1  0  0  0  0
M  END
> <PUBCHEM_COMPOUND_ID_TYPE>
0

> <PUBCHEM_TOTAL_CHARGE>
0

> <PUBCHEM_SUBSTANCE_ID>
170484926

> <PUBCHEM_SUBSTANCE_VERSION>
1

> <PUBCHEM_EXT_DATASOURCE_NAME>
Shanghai Institute of Organic Chemistry

> <PUBCHEM_EXT_DATASOURCE_REGID>
4eeh

> <PUBCHEM_SUBSTANCE_COMMENT>
PDB code 4eeh, binding affinity data from PDBbind-CN database: IC50=45uM

> <PUBCHEM_SUBSTANCE_SYNONYM>
4eeh

> <PUBCHEM_XREF_EXT_ID>
4eeh

> <PUBCHEM_EXT_DATASOURCE_URL>
http://www.sioc-ccbg.ac.cn/

> <PUBCHEM_EXT_SUBSTANCE_URL>
http://www.pdbbind-cn.org/quickpdb.asp?quickpdb=4eeh

> <PUBCHEM_CID_ASSOCIATIONS>
135566717  1

> <PUBCHEM_CONFORMER_ID>
0A2964BE00010001

> <PUBCHEM_COORDINATE_TYPE>
2
3
4

$$$$
170484964
  -OEChem-11262106393D

 35 37  0     0  0  0  0  0  0999 V2000
  -35.3050    0.2170    0.5830 Cl  0  0  0  0  0  0  0  0  0  0  0  0
  -38.9200   -2.1550   -0.2360 S   0  0  0  0  0  0  0  0  0  0  0  0
  -45.5700   -0.8250    0.3490 O   0  0  0  0  0  0  0  0  0  0  0  0
  -38.6260   -3.7470   -3.7620 O   0  0  0  0  0  0  0  0  0  0  0  0
  -44.4890   -1.2920    2.4760 O   0  0  0  0  0  0  0  0  0  0  0  0
  -42.3660   -1.5750    2.5730 O   0  0  0  0  0  0  0  0  0  0  0  0
  -37.2360   -3.3190   -1.9420 N   0  0  0  0  0  0  0  0  0  0  0  0
  -36.3460   -2.6050    0.2550 N   0  0  0  0  0  0  0  0  0  0  0  0
  -43.4040   -1.4610    1.9490 N   0  0  0  0  0  0  0  0  0  0  0  0
  -42.0930   -2.0540   -1.5630 C   0  0  0  0  0  0  0  0  0  0  0  0
  -39.6180   -2.6600   -1.8360 C   0  0  0  0  0  0  0  0  0  0  0  0
  -40.8830   -2.5040   -2.2730 C   0  0  0  0  0  0  0  0  0  0  0  0
  -42.1490   -1.9730   -0.1720 C   0  0  0  0  0  0  0  0  0  0  0  0
  -43.2300   -1.7290   -2.3200 C   0  0  0  0  0  0  0  0  0  0  0  0
  -43.3300   -1.5540    0.4400 C   0  0  0  0  0  0  0  0  0  0  0  0
  -38.5390   -3.2890   -2.6490 C   0  0  0  0  0  0  0  0  0  0  0  0
  -37.2650   -2.7550   -0.6440 C   0  0  0  0  0  0  0  0  0  0  0  0
  -44.4660   -1.2190   -0.3210 C   0  0  0  0  0  0  0  0  0  0  0  0
  -44.4040   -1.3140   -1.7170 C   0  0  0  0  0  0  0  0  0  0  0  0
  -36.4630   -2.0300    1.5730 C   0  0  0  0  0  0  0  0  0  0  0  0
  -35.9800   -0.7290    1.8320 C   0  0  0  0  0  0  0  0  0  0  0  0
  -36.9970   -2.7770    2.6290 C   0  0  0  0  0  0  0  0  0  0  0  0
  -36.0510   -0.1640    3.0990 C   0  0  0  0  0  0  0  0  0  0  0  0
  -37.0700   -2.2030    3.8980 C   0  0  0  0  0  0  0  0  0  0  0  0
  -36.6030   -0.9090    4.1340 C   0  0  0  0  0  0  0  0  0  0  0  0
  -41.0362   -2.7511   -3.3235 H   0  0  0  0  0  0  0  0  0  0  0  0
  -41.2791   -2.2344    0.4305 H   0  0  0  0  0  0  0  0  0  0  0  0
  -43.1868   -1.8053   -3.4065 H   0  0  0  0  0  0  0  0  0  0  0  0
  -36.3908   -3.7125   -2.3557 H   0  0  0  0  0  0  0  0  0  0  0  0
  -45.2740   -1.0629   -2.3237 H   0  0  0  0  0  0  0  0  0  0  0  0
  -37.3513   -3.7942    2.4619 H   0  0  0  0  0  0  0  0  0  0  0  0
  -35.6805    0.8453    3.2781 H   0  0  0  0  0  0  0  0  0  0  0  0
  -37.4995   -2.7752    4.7203 H   0  0  0  0  0  0  0  0  0  0  0  0
  -36.6716   -0.4812    5.1342 H   0  0  0  0  0  0  0  0  0  0  0  0
  -45.8551   -1.5292    0.9359 H   0  0  0  0  0  0  0  0  0  0  0  0
  1 21  1  0  0  0  0
  2 11  1  0  0  0  0
  2 17  1  0  0  0  0
  3 18  1  0  0  0  0
  3 35  1  0  0  0  0
  4 16  2  0  0  0  0
  5  9  2  0  0  0  0
  6  9  2  0  0  0  0
  7 16  1  0  0  0  0
  7 17  1  0  0  0  0
  7 29  1  0  0  0  0
  8 17  2  0  0  0  0
  8 20  1  0  0  0  0
  9 15  1  0  0  0  0
 10 12  1  0  0  0  0
 10 13  1  0  0  0  0
 10 14  2  0  0  0  0
 11 12  2  0  0  0  0
 11 16  1  0  0  0  0
 12 26  1  0  0  0  0
 13 15  2  0  0  0  0
 13 27  1  0  0  0  0
 14 19  1  0  0  0  0
 14 28  1  0  0  0  0
 15 18  1  0  0  0  0
 18 19  2  0  0  0  0
 19 30  1  0  0  0  0
 20 21  1  0  0  0  0
 20 22  2  0  0  0  0
 21 23  2  0  0  0  0
 22 24  1  0  0  0  0
 22 31  1  0  0  0  0
 23 25  1  0  0  0  0
 23 32  1  0  0  0  0
 24 25  2  0  0  0  0
 24 33  1  0  0  0  0
 25 34  1  0  0  0  0
M  END
> <PUBCHEM_COMPOUND_ID_TYPE>
0

> <PUBCHEM_TOTAL_CHARGE>
0

> <PUBCHEM_SUBSTANCE_ID>
170484964

> <PUBCHEM_SUBSTANCE_VERSION>
1

> <PUBCHEM_EXT_DATASOURCE_NAME>
Shanghai Institute of Organic Chemistry

> <PUBCHEM_EXT_DATASOURCE_REGID>
4enx

> <PUBCHEM_SUBSTANCE_COMMENT>
PDB code 4enx, binding affinity data from PDBbind-CN database: IC50=0.550uM

> <PUBCHEM_SUBSTANCE_SYNONYM>
4enx

> <PUBCHEM_XREF_EXT_ID>
4enx

> <PUBCHEM_EXT_DATASOURCE_URL>
http://www.sioc-ccbg.ac.cn/

> <PUBCHEM_EXT_SUBSTANCE_URL>
http://www.pdbbind-cn.org/quickpdb.asp?quickpdb=4enx

> <PUBCHEM_CID_ASSOCIATIONS>
135492573  1

> <PUBCHEM_CONFORMER_ID>
0A2964E400010001

> <PUBCHEM_COORDINATE_TYPE>
2
3
4

$$$$
170484962
  -OEChem-11262106393D

 46 49  0     0  0  0  0  0  0999 V2000
   16.3130   24.8190    9.5880 F   0  0  0  0  0  0  0  0  0  0  0  0
   16.9730   26.7430   10.4120 F   0  0  0  0  0  0  0  0  0  0  0  0
   14.8670   26.1980   10.4970 F   0  0  0  0  0  0  0  0  0  0  0  0
   19.1160   30.6600    3.3010 O   0  0  0  0  0  0  0  0  0  0  0  0
    9.8040   29.1960   11.6870 O   0  5  0  0  0  0  0  0  0  0  0  0
   10.6020   31.2200   11.1350 O   0  0  0  0  0  0  0  0  0  0  0  0
   15.2480   28.2520    7.0210 N   0  0  0  0  0  0  0  0  0  0  0  0
   15.9390   31.9860    4.3590 N   0  0  0  0  0  0  0  0  0  0  0  0
   13.9170   32.0040    5.6490 N   0  0  0  0  0  0  0  0  0  0  0  0
   15.3580   28.0230    8.3400 N   0  0  0  0  0  0  0  0  0  0  0  0
   18.0210   32.5050    2.5230 N   0  0  0  0  0  0  0  0  0  0  0  0
   11.5330   27.3320    8.5620 N   0  0  0  0  0  0  0  0  0  0  0  0
   15.5430   30.2160    5.6570 C   0  0  0  0  0  0  0  0  0  0  0  0
   14.7890   29.4870    6.5670 C   0  0  0  0  0  0  0  0  0  0  0  0
   15.0540   31.4390    5.2500 C   0  0  0  0  0  0  0  0  0  0  0  0
   13.5940   30.0230    7.0240 C   0  0  0  0  0  0  0  0  0  0  0  0
   16.7720   30.0420    4.9680 C   0  0  0  0  0  0  0  0  0  0  0  0
   17.0040   31.1430    4.1680 C   0  0  0  0  0  0  0  0  0  0  0  0
   12.6860   29.3700    7.9540 C   0  0  0  0  0  0  0  0  0  0  0  0
   13.2400   31.2540    6.5240 C   0  0  0  0  0  0  0  0  0  0  0  0
   15.5640   27.1720    6.2460 C   0  0  0  0  0  0  0  0  0  0  0  0
   18.1310   31.3880    3.3110 C   0  0  0  0  0  0  0  0  0  0  0  0
   15.7540   26.7510    8.4080 C   0  0  0  0  0  0  0  0  0  0  0  0
   15.8980   26.1700    7.1260 C   0  0  0  0  0  0  0  0  0  0  0  0
   12.0730   30.0370    9.0020 C   0  0  0  0  0  0  0  0  0  0  0  0
   12.3670   28.0370    7.7900 C   0  0  0  0  0  0  0  0  0  0  0  0
   11.1950   29.3530    9.8230 C   0  0  0  0  0  0  0  0  0  0  0  0
   15.9800   26.1310    9.7180 C   0  0  0  0  0  0  0  0  0  0  0  0
   19.1460   32.9100    1.7140 C   0  0  0  0  0  0  0  0  0  0  0  0
   10.9700   28.0210    9.5560 C   0  0  0  0  0  0  0  0  0  0  0  0
   19.3020   34.4080    1.7060 C   0  0  0  0  0  0  0  0  0  0  0  0
   10.4890   29.9760   10.9660 C   0  0  0  0  0  0  0  0  0  0  0  0
   17.4278   29.1771    5.0565 H   0  0  0  0  0  0  0  0  0  0  0  0
   15.8215   32.8997    3.8983 H   0  0  0  0  0  0  0  0  0  0  0  0
   12.3023   31.6641    6.8812 H   0  0  0  0  0  0  0  0  0  0  0  0
   15.5535   27.1165    5.1585 H   0  0  0  0  0  0  0  0  0  0  0  0
   16.2058   25.1527    6.8885 H   0  0  0  0  0  0  0  0  0  0  0  0
   12.2798   31.0866    9.1772 H   0  0  0  0  0  0  0  0  0  0  0  0
   12.8338   27.5155    6.9622 H   0  0  0  0  0  0  0  0  0  0  0  0
   17.1717   33.0327    2.5090 H   0  0  0  0  0  0  0  0  0  0  0  0
   20.0618   32.4563    2.1208 H   0  0  0  0  0  0  0  0  0  0  0  0
   18.9903   32.5602    0.6828 H   0  0  0  0  0  0  0  0  0  0  0  0
   10.2816   27.4908   10.2042 H   0  0  0  0  0  0  0  0  0  0  0  0
   20.1654   34.6834    1.0826 H   0  0  0  0  0  0  0  0  0  0  0  0
   19.4631   34.7654    2.7338 H   0  0  0  0  0  0  0  0  0  0  0  0
   18.3916   34.8693    1.2958 H   0  0  0  0  0  0  0  0  0  0  0  0
  1 28  1  0  0  0  0
  2 28  1  0  0  0  0
  3 28  1  0  0  0  0
  4 22  2  0  0  0  0
  5 32  1  0  0  0  0
  6 32  2  0  0  0  0
  7 10  1  0  0  0  0
  7 14  1  0  0  0  0
  7 21  1  0  0  0  0
  8 15  1  0  0  0  0
  8 18  1  0  0  0  0
  8 34  1  0  0  0  0
  9 15  1  0  0  0  0
  9 20  2  0  0  0  0
 10 23  2  0  0  0  0
 11 22  1  0  0  0  0
 11 29  1  0  0  0  0
 11 40  1  0  0  0  0
 12 26  1  0  0  0  0
 12 30  2  0  0  0  0
 13 14  1  0  0  0  0
 13 15  2  0  0  0  0
 13 17  1  0  0  0  0
 14 16  2  0  0  0  0
 16 19  1  0  0  0  0
 16 20  1  0  0  0  0
 17 18  2  0  0  0  0
 17 33  1  0  0  0  0
 18 22  1  0  0  0  0
 19 25  1  0  0  0  0
 19 26  2  0  0  0  0
 20 35  1  0  0  0  0
 21 24  2  0  0  0  0
 21 36  1  0  0  0  0
 23 24  1  0  0  0  0
 23 28  1  0  0  0  0
 24 37  1  0  0  0  0
 25 27  2  0  0  0  0
 25 38  1  0  0  0  0
 26 39  1  0  0  0  0
 27 30  1  0  0  0  0
 27 32  1  0  0  0  0
 29 31  1  0  0  0  0
 29 41  1  0  0  0  0
 29 42  1  0  0  0  0
 30 43  1  0  0  0  0
 31 44  1  0  0  0  0
 31 45  1  0  0  0  0
 31 46  1  0  0  0  0
M  CHG  1   5  -1
M  END
> <PUBCHEM_COMPOUND_ID_TYPE>
0

> <PUBCHEM_TOTAL_CHARGE>
-1

> <PUBCHEM_SUBSTANCE_ID>
170484962

> <PUBCHEM_SUBSTANCE_VERSION>
1

> <PUBCHEM_EXT_DATASOURCE_NAME>
Shanghai Institute of Organic Chemistry

> <PUBCHEM_EXT_DATASOURCE_REGID>
4emv

> <PUBCHEM_SUBSTANCE_COMMENT>
PDB code 4emv, binding affinity data from PDBbind-CN database: IC50=0.005uM

> <PUBCHEM_SUBSTANCE_SYNONYM>
4emv

> <PUBCHEM_XREF_EXT_ID>
4emv

> <PUBCHEM_EXT_DATASOURCE_URL>
http://www.sioc-ccbg.ac.cn/

> <PUBCHEM_EXT_SUBSTANCE_URL>
http://www.pdbbind-cn.org/quickpdb.asp?quickpdb=4emv

> <PUBCHEM_CID_ASSOCIATIONS>
72200917  1
57411983  2

> <PUBCHEM_CONFORMER_ID>
0A2964E200010001

> <PUBCHEM_COORDINATE_TYPE>
2
3
4

$$$$
170484960
  -OEChem-11262106393D

 31 33  0     0  0  0  0  0  0999 V2000
    9.9430   31.4990   12.3150 O   0  5  0  0  0  0  0  0  0  0  0  0
    8.9040   29.5960   13.0250 O   0  0  0  0  0  0  0  0  0  0  0  0
   16.4250   31.6680    4.0070 N   0  0  0  0  0  0  0  0  0  0  0  0
   14.6440   31.8290    5.5890 N   0  0  0  0  0  0  0  0  0  0  0  0
   14.1520   29.7240    6.6900 C   0  0  0  0  0  0  0  0  0  0  0  0
   15.8770   29.8020    5.0930 C   0  0  0  0  0  0  0  0  0  0  0  0
   13.3050   29.0350    7.6380 C   0  0  0  0  0  0  0  0  0  0  0  0
   15.5810   31.1410    4.9430 C   0  0  0  0  0  0  0  0  0  0  0  0
   15.1430   29.0550    6.0000 C   0  0  0  0  0  0  0  0  0  0  0  0
   16.9480   29.5280    4.2050 C   0  0  0  0  0  0  0  0  0  0  0  0
   13.9620   31.0650    6.4450 C   0  0  0  0  0  0  0  0  0  0  0  0
   12.7720   29.6770    8.7380 C   0  0  0  0  0  0  0  0  0  0  0  0
   12.9980   27.7050    7.4400 C   0  0  0  0  0  0  0  0  0  0  0  0
   11.9550   29.0040    9.6230 C   0  0  0  0  0  0  0  0  0  0  0  0
   17.2660   30.6980    3.5480 C   0  0  0  0  0  0  0  0  0  0  0  0
   12.1830   27.0230    8.3150 C   0  0  0  0  0  0  0  0  0  0  0  0
   11.6610   27.6750    9.4080 C   0  0  0  0  0  0  0  0  0  0  0  0
   11.3960   29.6880   10.7810 C   0  0  0  0  0  0  0  0  0  0  0  0
   10.0870   29.5430   11.0140 C   0  0  0  0  0  0  0  0  0  0  0  0
    9.6050   30.2860   12.2350 C   0  0  0  0  0  0  0  0  0  0  0  0
   15.3367   28.0004    6.1595 H   0  0  0  0  0  0  0  0  0  0  0  0
   17.4339   28.5633    4.0663 H   0  0  0  0  0  0  0  0  0  0  0  0
   13.1742   31.5529    7.0074 H   0  0  0  0  0  0  0  0  0  0  0  0
   12.9983   30.7233    8.9085 H   0  0  0  0  0  0  0  0  0  0  0  0
   16.4259   32.6497    3.6952 H   0  0  0  0  0  0  0  0  0  0  0  0
   13.4060   27.1872    6.5795 H   0  0  0  0  0  0  0  0  0  0  0  0
   18.0465   30.8242    2.7991 H   0  0  0  0  0  0  0  0  0  0  0  0
   11.9537   25.9775    8.1436 H   0  0  0  0  0  0  0  0  0  0  0  0
   11.0183   27.1433   10.1003 H   0  0  0  0  0  0  0  0  0  0  0  0
   12.0213   30.2956   11.4336 H   0  0  0  0  0  0  0  0  0  0  0  0
    9.4315   28.9454   10.3823 H   0  0  0  0  0  0  0  0  0  0  0  0
  1 20  1  0  0  0  0
  2 20  2  0  0  0  0
  3  8  1  0  0  0  0
  3 15  1  0  0  0  0
  3 25  1  0  0  0  0
  4  8  2  0  0  0  0
  4 11  1  0  0  0  0
  5  7  1  0  0  0  0
  5  9  1  0  0  0  0
  5 11  2  0  0  0  0
  6  8  1  0  0  0  0
  6  9  2  0  0  0  0
  6 10  1  0  0  0  0
  7 12  2  0  0  0  0
  7 13  1  0  0  0  0
  9 21  1  0  0  0  0
 10 15  2  0  0  0  0
 10 22  1  0  0  0  0
 11 23  1  0  0  0  0
 12 14  1  0  0  0  0
 12 24  1  0  0  0  0
 13 16  2  0  0  0  0
 13 26  1  0  0  0  0
 14 17  2  0  0  0  0
 14 18  1  0  0  0  0
 15 27  1  0  0  0  0
 16 17  1  0  0  0  0
 16 28  1  0  0  0  0
 17 29  1  0  0  0  0
 18 19  2  0  0  0  0
 18 30  1  0  0  0  0
 19 20  1  0  0  0  0
 19 31  1  0  0  0  0
M  CHG  1   1  -1
M  END
> <PUBCHEM_COMPOUND_ID_TYPE>
0

> <PUBCHEM_TOTAL_CHARGE>
-1

> <PUBCHEM_SUBSTANCE_ID>
170484960

> <PUBCHEM_SUBSTANCE_VERSION>
1

> <PUBCHEM_EXT_DATASOURCE_NAME>
Shanghai Institute of Organic Chemistry

> <PUBCHEM_EXT_DATASOURCE_REGID>
4em7

> <PUBCHEM_SUBSTANCE_COMMENT>
PDB code 4em7, binding affinity data from PDBbind-CN database: IC50=7.7uM

> <PUBCHEM_SUBSTANCE_SYNONYM>
4em7

> <PUBCHEM_XREF_EXT_ID>
4em7

> <PUBCHEM_EXT_DATASOURCE_URL>
http://www.sioc-ccbg.ac.cn/

> <PUBCHEM_EXT_SUBSTANCE_URL>
http://www.pdbbind-cn.org/quickpdb.asp?quickpdb=4em7

> <PUBCHEM_CID_ASSOCIATIONS>
72200916  1
70688518  2

> <PUBCHEM_CONFORMER_ID>
0A2964E000010001

> <PUBCHEM_COORDINATE_TYPE>
2
3
4

$$$$
170484959
  -OEChem-11262106393D

 53 56  0     1  0  0  0  0  0999 V2000
   34.4180    5.8120    7.5640 O   0  0  0  0  0  0  0  0  0  0  0  0
   33.9630    3.5480    7.8560 O   0  0  0  0  0  0  0  0  0  0  0  0
   31.2360    5.1950    5.1380 O   0  0  0  0  0  0  0  0  0  0  0  0
   31.0170    6.8500    7.3400 O   0  0  0  0  0  0  0  0  0  0  0  0
   33.8930    5.2960    4.7910 O   0  0  0  0  0  0  0  0  0  0  0  0
   34.6610    3.4200   11.4580 O   0  0  0  0  0  0  0  0  0  0  0  0
   36.8650    3.3240    7.9550 O   0  0  0  0  0  0  0  0  0  0  0  0
   39.0120    3.0890    9.4100 O   0  0  0  0  0  0  0  0  0  0  0  0
   38.4770    3.0230   14.2630 O   0  0  0  0  0  0  0  0  0  0  0  0
   28.3600    3.4670   11.0730 O   0  0  0  0  0  0  0  0  0  0  0  0
   32.0640    5.0630    6.2410 C   0  0  2  0  0  0  0  0  0  0  0  0
   32.2300    6.3950    6.8690 C   0  0  2  0  0  0  0  0  0  0  0  0
   33.4030    4.5390    5.8290 C   0  0  2  0  0  0  0  0  0  0  0  0
   33.1910    6.2720    8.0090 C   0  0  2  0  0  0  0  0  0  0  0  0
   34.3640    4.5580    6.9870 C   0  0  1  0  0  0  0  0  0  0  0  0
   33.3430    7.6080    8.6550 C   0  0  0  0  0  0  0  0  0  0  0  0
   34.6500    3.4860    9.0650 C   0  0  0  0  0  0  0  0  0  0  0  0
   33.9860    3.5180   10.2600 C   0  0  3  0  0  0  0  0  0  0  0  0
   36.1250    3.3520    9.0960 C   0  0  0  0  0  0  0  0  0  0  0  0
   36.7830    3.2600   10.4190 C   0  0  0  0  0  0  0  0  0  0  0  0
   32.5130    3.5710   10.4500 C   0  0  0  0  0  0  0  0  0  0  0  0
   36.0220    3.2960   11.5420 C   0  0  0  0  0  0  0  0  0  0  0  0
   38.2600    3.1330   10.5410 C   0  0  0  0  0  0  0  0  0  0  0  0
   32.0050    4.0160   11.6320 C   0  0  0  0  0  0  0  0  0  0  0  0
   31.6420    2.9720    9.4090 C   0  0  0  0  0  0  0  0  0  0  0  0
   36.6180    3.2140   12.8890 C   0  0  0  0  0  0  0  0  0  0  0  0
   38.8410    3.0460   11.7810 C   0  0  0  0  0  0  0  0  0  0  0  0
   37.9710    3.0860   13.0010 C   0  0  0  0  0  0  0  0  0  0  0  0
   30.5310    4.0010   11.8570 C   0  0  0  0  0  0  0  0  0  0  0  0
   30.2900    2.9570    9.6040 C   0  0  0  0  0  0  0  0  0  0  0  0
   29.7190    3.4950   10.8720 C   0  0  0  0  0  0  0  0  0  0  0  0
   31.6073    4.3682    6.9612 H   0  0  0  0  0  0  0  0  0  0  0  0
   32.6240    7.1053    6.1272 H   0  0  0  0  0  0  0  0  0  0  0  0
   33.2862    3.5000    5.4871 H   0  0  0  0  0  0  0  0  0  0  0  0
   32.7895    5.5585    8.7437 H   0  0  0  0  0  0  0  0  0  0  0  0
   35.3728    4.3185    6.6195 H   0  0  0  0  0  0  0  0  0  0  0  0
   34.0480    7.5306    9.4958 H   0  0  0  0  0  0  0  0  0  0  0  0
   32.3654    7.9490    9.0265 H   0  0  0  0  0  0  0  0  0  0  0  0
   33.7277    8.3295    7.9192 H   0  0  0  0  0  0  0  0  0  0  0  0
   34.0522    4.6160   10.2584 H   0  0  0  0  0  0  0  0  0  0  0  0
   31.6284    5.8000    4.5194 H   0  0  0  0  0  0  0  0  0  0  0  0
   30.4039    6.9191    6.6177 H   0  0  0  0  0  0  0  0  0  0  0  0
   33.2939    5.2481    4.0553 H   0  0  0  0  0  0  0  0  0  0  0  0
   32.6698    4.3800   12.4070 H   0  0  0  0  0  0  0  0  0  0  0  0
   32.0722    2.5524    8.5068 H   0  0  0  0  0  0  0  0  0  0  0  0
   35.9921    3.2547   13.7731 H   0  0  0  0  0  0  0  0  0  0  0  0
   39.9164    2.9495   11.8772 H   0  0  0  0  0  0  0  0  0  0  0  0
   37.7842    3.2336    8.1772 H   0  0  0  0  0  0  0  0  0  0  0  0
   30.1088    4.3820   12.7799 H   0  0  0  0  0  0  0  0  0  0  0  0
   29.6346    2.5554    8.8396 H   0  0  0  0  0  0  0  0  0  0  0  0
   38.8807    3.8876    8.9125 H   0  0  0  0  0  0  0  0  0  0  0  0
   39.4220    2.9351   14.2201 H   0  0  0  0  0  0  0  0  0  0  0  0
   28.1587    3.8433   11.9218 H   0  0  0  0  0  0  0  0  0  0  0  0
  1 14  1  0  0  0  0
  1 15  1  0  0  0  0
  2 15  1  0  0  0  0
  2 17  1  0  0  0  0
  3 11  1  0  0  0  0
  3 41  1  0  0  0  0
  4 12  1  0  0  0  0
  4 42  1  0  0  0  0
  5 13  1  0  0  0  0
  5 43  1  0  0  0  0
  6 18  1  0  0  0  0
  6 22  1  0  0  0  0
  7 19  1  0  0  0  0
  7 48  1  0  0  0  0
  8 23  1  0  0  0  0
  8 51  1  0  0  0  0
  9 28  1  0  0  0  0
  9 52  1  0  0  0  0
 10 31  1  0  0  0  0
 10 53  1  0  0  0  0
 11 12  1  0  0  0  0
 11 13  1  0  0  0  0
 11 32  1  0  0  0  0
 12 14  1  0  0  0  0
 12 33  1  0  0  0  0
 13 15  1  0  0  0  0
 13 34  1  0  0  0  0
 14 16  1  0  0  0  0
 14 35  1  0  0  0  0
 15 36  1  0  0  0  0
 16 37  1  0  0  0  0
 16 38  1  0  0  0  0
 16 39  1  0  0  0  0
 17 18  1  0  0  0  0
 17 19  2  0  0  0  0
 18 21  1  0  0  0  0
 18 40  1  0  0  0  0
 19 20  1  0  0  0  0
 20 22  2  0  0  0  0
 20 23  1  0  0  0  0
 21 24  2  0  0  0  0
 21 25  1  0  0  0  0
 22 26  1  0  0  0  0
 23 27  2  0  0  0  0
 24 29  1  0  0  0  0
 24 44  1  0  0  0  0
 25 30  2  0  0  0  0
 25 45  1  0  0  0  0
 26 28  2  0  0  0  0
 26 46  1  0  0  0  0
 27 28  1  0  0  0  0
 27 47  1  0  0  0  0
 29 31  2  0  0  0  0
 29 49  1  0  0  0  0
 30 31  1  0  0  0  0
 30 50  1  0  0  0  0
M  END
> <PUBCHEM_COMPOUND_ID_TYPE>
0

> <PUBCHEM_TOTAL_CHARGE>
0

> <PUBCHEM_SUBSTANCE_ID>
170484959

> <PUBCHEM_SUBSTANCE_VERSION>
1

> <PUBCHEM_EXT_DATASOURCE_NAME>
Shanghai Institute of Organic Chemistry

> <PUBCHEM_EXT_DATASOURCE_REGID>
4el9

> <PUBCHEM_SUBSTANCE_COMMENT>
PDB code 4el9, binding affinity data from PDBbind-CN database: IC50=4.37uM

> <PUBCHEM_SUBSTANCE_SYNONYM>
4el9

> <PUBCHEM_XREF_EXT_ID>
4el9

> <PUBCHEM_EXT_DATASOURCE_URL>
http://www.sioc-ccbg.ac.cn/

> <PUBCHEM_EXT_SUBSTANCE_URL>
http://www.pdbbind-cn.org/quickpdb.asp?quickpdb=4el9

> <PUBCHEM_CID_ASSOCIATIONS>
72200915  1

> <PUBCHEM_CONFORMER_ID>
0A2964DF00010001

> <PUBCHEM_COORDINATE_TYPE>
2
3
4

$$$$
170484951
  -OEChem-11262106393D

 69 74  0     0  0  0  0  0  0999 V2000
   31.9860   37.6690   19.6790 F   0  0  0  0  0  0  0  0  0  0  0  0
   29.6700   41.5770   15.9770 O   0  0  0  0  0  0  0  0  0  0  0  0
   37.4060   46.1000   24.7550 O   0  0  0  0  0  0  0  0  0  0  0  0
   37.1010   45.1460   16.8410 N   0  0  0  0  0  0  0  0  0  0  0  0
   38.9270   46.3140   16.7150 N   0  0  0  0  0  0  0  0  0  0  0  0
   37.2830   44.3380   19.1740 N   0  0  0  0  0  0  0  0  0  0  0  0
   31.4140   42.2840   17.1250 N   0  0  0  0  0  0  0  0  0  0  0  0
   37.4590   47.9820   12.8310 N   0  0  0  0  0  0  0  0  0  0  0  0
   38.4030   48.6180   14.8950 N   0  0  0  0  0  0  0  0  0  0  0  0
   37.5780   43.8520   25.1510 N   0  0  0  0  0  0  0  0  0  0  0  0
   37.6280   45.0110   18.0490 C   0  0  0  0  0  0  0  0  0  0  0  0
   37.8160   45.9400   16.0130 C   0  0  0  0  0  0  0  0  0  0  0  0
   35.8780   44.6160   16.6130 C   0  0  0  0  0  0  0  0  0  0  0  0
   38.8780   45.7790   17.9700 C   0  0  0  0  0  0  0  0  0  0  0  0
   37.4720   46.3210   14.6110 C   0  0  0  0  0  0  0  0  0  0  0  0
   38.0690   44.3530   20.2650 C   0  0  0  0  0  0  0  0  0  0  0  0
   35.5150   43.2870   16.9200 C   0  0  0  0  0  0  0  0  0  0  0  0
   34.8280   45.4280   16.1360 C   0  0  0  0  0  0  0  0  0  0  0  0
   39.6940   45.7840   19.1070 C   0  0  0  0  0  0  0  0  0  0  0  0
   33.2210   43.6480   16.2480 C   0  0  0  0  0  0  0  0  0  0  0  0
   39.2830   45.0680   20.2480 C   0  0  0  0  0  0  0  0  0  0  0  0
   34.2250   42.8060   16.7360 C   0  0  0  0  0  0  0  0  0  0  0  0
   33.5310   44.9580   15.9290 C   0  0  0  0  0  0  0  0  0  0  0  0
   37.6110   43.5850   21.4670 C   0  0  0  0  0  0  0  0  0  0  0  0
   31.8080   43.1450   16.0250 C   0  0  0  0  0  0  0  0  0  0  0  0
   37.7940   47.6850   14.0980 C   0  0  0  0  0  0  0  0  0  0  0  0
   36.8440   45.4090   13.7480 C   0  0  0  0  0  0  0  0  0  0  0  0
   37.8090   44.0840   22.7580 C   0  0  0  0  0  0  0  0  0  0  0  0
   36.9660   42.3530   21.3040 C   0  0  0  0  0  0  0  0  0  0  0  0
   37.3860   43.3700   23.8850 C   0  0  0  0  0  0  0  0  0  0  0  0
   36.5250   45.8020   12.4540 C   0  0  0  0  0  0  0  0  0  0  0  0
   36.5440   41.6320   22.4240 C   0  0  0  0  0  0  0  0  0  0  0  0
   36.7520   42.1290   23.7160 C   0  0  0  0  0  0  0  0  0  0  0  0
   36.8450   47.0960   12.0140 C   0  0  0  0  0  0  0  0  0  0  0  0
   30.4250   41.4270   16.9210 C   0  0  0  0  0  0  0  0  0  0  0  0
   30.2050   40.2530   17.8160 C   0  0  0  0  0  0  0  0  0  0  0  0
   37.6080   45.1470   25.5140 C   0  0  0  0  0  0  0  0  0  0  0  0
   31.2700   39.5110   18.3300 C   0  0  0  0  0  0  0  0  0  0  0  0
   28.8870   39.8870   18.1060 C   0  0  0  0  0  0  0  0  0  0  0  0
   30.9880   38.4080   19.1500 C   0  0  0  0  0  0  0  0  0  0  0  0
   28.6250   38.7960   18.9300 C   0  0  0  0  0  0  0  0  0  0  0  0
   29.6780   38.0520   19.4450 C   0  0  0  0  0  0  0  0  0  0  0  0
   37.9110   45.3590   26.9720 C   0  0  0  0  0  0  0  0  0  0  0  0
   36.2749   42.6134   17.3160 H   0  0  0  0  0  0  0  0  0  0  0  0
   35.0405   46.4747   15.9183 H   0  0  0  0  0  0  0  0  0  0  0  0
   40.6348   46.3345   19.1094 H   0  0  0  0  0  0  0  0  0  0  0  0
   39.9163   45.0669   21.1351 H   0  0  0  0  0  0  0  0  0  0  0  0
   33.9943   41.7674   16.9731 H   0  0  0  0  0  0  0  0  0  0  0  0
   32.7670   45.6184   15.5187 H   0  0  0  0  0  0  0  0  0  0  0  0
   31.7690   42.5805   15.0934 H   0  0  0  0  0  0  0  0  0  0  0  0
   31.1272   43.9945   15.9702 H   0  0  0  0  0  0  0  0  0  0  0  0
   36.6087   44.4012   14.0901 H   0  0  0  0  0  0  0  0  0  0  0  0
   38.3021   45.0472   22.8892 H   0  0  0  0  0  0  0  0  0  0  0  0
   36.7931   41.9564   20.3035 H   0  0  0  0  0  0  0  0  0  0  0  0
   31.8848   42.3373   18.0283 H   0  0  0  0  0  0  0  0  0  0  0  0
   36.0261   45.1053   11.7804 H   0  0  0  0  0  0  0  0  0  0  0  0
   36.0470   40.6712   22.2901 H   0  0  0  0  0  0  0  0  0  0  0  0
   36.4243   41.5569   24.5840 H   0  0  0  0  0  0  0  0  0  0  0  0
   36.5941   47.3922   10.9955 H   0  0  0  0  0  0  0  0  0  0  0  0
   38.6449   48.3860   15.8583 H   0  0  0  0  0  0  0  0  0  0  0  0
   38.6145   49.5447   14.5251 H   0  0  0  0  0  0  0  0  0  0  0  0
   37.7113   43.1629   25.8911 H   0  0  0  0  0  0  0  0  0  0  0  0
   32.2999   39.7831   18.0989 H   0  0  0  0  0  0  0  0  0  0  0  0
   28.0603   40.4590   17.6846 H   0  0  0  0  0  0  0  0  0  0  0  0
   27.5964   38.5267   19.1701 H   0  0  0  0  0  0  0  0  0  0  0  0
   29.4770   37.1893   20.0802 H   0  0  0  0  0  0  0  0  0  0  0  0
   38.8185   45.9547   27.0703 H   0  0  0  0  0  0  0  0  0  0  0  0
   37.0786   45.8823   27.4424 H   0  0  0  0  0  0  0  0  0  0  0  0
   38.0547   44.3930   27.4561 H   0  0  0  0  0  0  0  0  0  0  0  0
  1 40  1  0  0  0  0
  2 35  2  0  0  0  0
  3 37  2  0  0  0  0
  4 11  1  0  0  0  0
  4 12  1  0  0  0  0
  4 13  1  0  0  0  0
  5 12  2  0  0  0  0
  5 14  1  0  0  0  0
  6 11  1  0  0  0  0
  6 16  2  0  0  0  0
  7 25  1  0  0  0  0
  7 35  1  0  0  0  0
  7 55  1  0  0  0  0
  8 26  2  0  0  0  0
  8 34  1  0  0  0  0
  9 26  1  0  0  0  0
  9 60  1  0  0  0  0
  9 61  1  0  0  0  0
 10 30  1  0  0  0  0
 10 37  1  0  0  0  0
 10 62  1  0  0  0  0
 11 14  2  0  0  0  0
 12 15  1  0  0  0  0
 13 17  2  0  0  0  0
 13 18  1  0  0  0  0
 14 19  1  0  0  0  0
 15 26  1  0  0  0  0
 15 27  2  0  0  0  0
 16 21  1  0  0  0  0
 16 24  1  0  0  0  0
 17 22  1  0  0  0  0
 17 44  1  0  0  0  0
 18 23  2  0  0  0  0
 18 45  1  0  0  0  0
 19 21  2  0  0  0  0
 19 46  1  0  0  0  0
 20 22  2  0  0  0  0
 20 23  1  0  0  0  0
 20 25  1  0  0  0  0
 21 47  1  0  0  0  0
 22 48  1  0  0  0  0
 23 49  1  0  0  0  0
 24 28  1  0  0  0  0
 24 29  2  0  0  0  0
 25 50  1  0  0  0  0
 25 51  1  0  0  0  0
 27 31  1  0  0  0  0
 27 52  1  0  0  0  0
 28 30  2  0  0  0  0
 28 53  1  0  0  0  0
 29 32  1  0  0  0  0
 29 54  1  0  0  0  0
 30 33  1  0  0  0  0
 31 34  2  0  0  0  0
 31 56  1  0  0  0  0
 32 33  2  0  0  0  0
 32 57  1  0  0  0  0
 33 58  1  0  0  0  0
 34 59  1  0  0  0  0
 35 36  1  0  0  0  0
 36 38  1  0  0  0  0
 36 39  2  0  0  0  0
 37 43  1  0  0  0  0
 38 40  2  0  0  0  0
 38 63  1  0  0  0  0
 39 41  1  0  0  0  0
 39 64  1  0  0  0  0
 40 42  1  0  0  0  0
 41 42  2  0  0  0  0
 41 65  1  0  0  0  0
 42 66  1  0  0  0  0
 43 67  1  0  0  0  0
 43 68  1  0  0  0  0
 43 69  1  0  0  0  0
M  END
> <PUBCHEM_COMPOUND_ID_TYPE>
0

> <PUBCHEM_TOTAL_CHARGE>
0

> <PUBCHEM_SUBSTANCE_ID>
170484951

> <PUBCHEM_SUBSTANCE_VERSION>
1

> <PUBCHEM_EXT_DATASOURCE_NAME>
Shanghai Institute of Organic Chemistry

> <PUBCHEM_EXT_DATASOURCE_REGID>
4ejn

> <PUBCHEM_SUBSTANCE_COMMENT>
PDB code 4ejn, binding affinity data from PDBbind-CN database: IC50=5nM

> <PUBCHEM_SUBSTANCE_SYNONYM>
4ejn

> <PUBCHEM_XREF_EXT_ID>
4ejn

> <PUBCHEM_EXT_DATASOURCE_URL>
http://www.sioc-ccbg.ac.cn/

> <PUBCHEM_EXT_SUBSTANCE_URL>
http://www.pdbbind-cn.org/quickpdb.asp?quickpdb=4ejn

> <PUBCHEM_CID_ASSOCIATIONS>
56965952  1

> <PUBCHEM_CONFORMER_ID>
0A2964D700010001

> <PUBCHEM_COORDINATE_TYPE>
2
3
4

$$$$
170484946
  -OEChem-11262106393D

 40 43  0     1  0  0  0  0  0999 V2000
   -1.1950   -2.1570   11.7510 Cl  0  0  0  0  0  0  0  0  0  0  0  0
   -0.7810  -11.3950   11.9250 O   0  0  0  0  0  0  0  0  0  0  0  0
   -4.0760   -7.9970   11.0140 O   0  0  0  0  0  0  0  0  0  0  0  0
   -4.0870   -8.1280   13.2610 N   0  0  0  0  0  0  0  0  0  0  0  0
   -1.7690  -10.1460   13.5070 N   0  0  0  0  0  0  0  0  0  0  0  0
   -4.1840  -10.5230   14.0790 C   0  0  1  0  0  0  0  0  0  0  0  0
   -2.8240   -8.7600   15.2500 C   0  0  2  0  0  0  0  0  0  0  0  0
   -3.7580   -9.9720   15.4550 C   0  0  0  0  0  0  0  0  0  0  0  0
   -4.8260   -9.4360   13.2090 C   0  0  0  0  0  0  0  0  0  0  0  0
   -2.9550  -11.0480   13.3660 C   0  0  0  0  0  0  0  0  0  0  0  0
   -3.6680   -7.6360   14.6030 C   0  0  0  0  0  0  0  0  0  0  0  0
   -1.7290   -9.1040   14.3960 C   0  0  0  0  0  0  0  0  0  0  0  0
   -0.5740   -8.3140   14.4670 C   0  0  0  0  0  0  0  0  0  0  0  0
   -0.7130  -10.4360   12.7100 C   0  0  0  0  0  0  0  0  0  0  0  0
   -3.7520   -7.5100   12.1020 C   0  0  0  0  0  0  0  0  0  0  0  0
    0.5230   -8.5960   13.6560 C   0  0  0  0  0  0  0  0  0  0  0  0
    0.4520   -9.6660   12.7670 C   0  0  0  0  0  0  0  0  0  0  0  0
   -3.1100   -6.2630   12.0540 C   0  0  0  0  0  0  0  0  0  0  0  0
   -1.7200   -6.1400   11.9640 C   0  0  0  0  0  0  0  0  0  0  0  0
   -3.8990   -5.1080   12.0220 C   0  0  0  0  0  0  0  0  0  0  0  0
   -1.1380   -4.8700   11.8840 C   0  0  0  0  0  0  0  0  0  0  0  0
   -3.3230   -3.8390   11.9390 C   0  0  0  0  0  0  0  0  0  0  0  0
   -1.9340   -3.7230   11.8670 C   0  0  0  0  0  0  0  0  0  0  0  0
   -4.9056  -11.3401   14.2259 H   0  0  0  0  0  0  0  0  0  0  0  0
   -2.4333   -8.4229   16.2214 H   0  0  0  0  0  0  0  0  0  0  0  0
   -3.2269  -10.7548   16.0163 H   0  0  0  0  0  0  0  0  0  0  0  0
   -4.6496   -9.6582   16.0177 H   0  0  0  0  0  0  0  0  0  0  0  0
   -5.8559   -9.2706   13.5582 H   0  0  0  0  0  0  0  0  0  0  0  0
   -4.8442   -9.7869   12.1666 H   0  0  0  0  0  0  0  0  0  0  0  0
   -2.6993  -12.0320   13.7860 H   0  0  0  0  0  0  0  0  0  0  0  0
   -3.1890  -11.1553   12.2966 H   0  0  0  0  0  0  0  0  0  0  0  0
   -3.0649   -6.7219   14.4994 H   0  0  0  0  0  0  0  0  0  0  0  0
   -4.5527   -7.4236   15.2212 H   0  0  0  0  0  0  0  0  0  0  0  0
   -0.5336   -7.4749   15.1600 H   0  0  0  0  0  0  0  0  0  0  0  0
    1.4243   -7.9878   13.7163 H   0  0  0  0  0  0  0  0  0  0  0  0
    1.2973   -9.9006   12.1217 H   0  0  0  0  0  0  0  0  0  0  0  0
   -1.0952   -7.0258   11.9562 H   0  0  0  0  0  0  0  0  0  0  0  0
   -4.9783   -5.2003   12.0624 H   0  0  0  0  0  0  0  0  0  0  0  0
   -0.0592   -4.7758   11.8348 H   0  0  0  0  0  0  0  0  0  0  0  0
   -3.9479   -2.9533   11.9306 H   0  0  0  0  0  0  0  0  0  0  0  0
  1 23  1  0  0  0  0
  2 14  2  0  0  0  0
  3 15  2  0  0  0  0
  4  9  1  0  0  0  0
  4 11  1  0  0  0  0
  4 15  1  0  0  0  0
  5 10  1  0  0  0  0
  5 12  1  0  0  0  0
  5 14  1  0  0  0  0
  6  8  1  0  0  0  0
  6  9  1  0  0  0  0
  6 10  1  0  0  0  0
  6 24  1  0  0  0  0
  7  8  1  0  0  0  0
  7 11  1  0  0  0  0
  7 12  1  0  0  0  0
  7 25  1  0  0  0  0
  8 26  1  0  0  0  0
  8 27  1  0  0  0  0
  9 28  1  0  0  0  0
  9 29  1  0  0  0  0
 10 30  1  0  0  0  0
 10 31  1  0  0  0  0
 11 32  1  0  0  0  0
 11 33  1  0  0  0  0
 12 13  2  0  0  0  0
 13 16  1  0  0  0  0
 13 34  1  0  0  0  0
 14 17  1  0  0  0  0
 15 18  1  0  0  0  0
 16 17  2  0  0  0  0
 16 35  1  0  0  0  0
 17 36  1  0  0  0  0
 18 19  2  0  0  0  0
 18 20  1  0  0  0  0
 19 21  1  0  0  0  0
 19 37  1  0  0  0  0
 20 22  2  0  0  0  0
 20 38  1  0  0  0  0
 21 23  2  0  0  0  0
 21 39  1  0  0  0  0
 22 23  1  0  0  0  0
 22 40  1  0  0  0  0
M  END
> <PUBCHEM_COMPOUND_ID_TYPE>
0

> <PUBCHEM_TOTAL_CHARGE>
0

> <PUBCHEM_SUBSTANCE_ID>
170484946

> <PUBCHEM_SUBSTANCE_VERSION>
1

> <PUBCHEM_EXT_DATASOURCE_NAME>
Shanghai Institute of Organic Chemistry

> <PUBCHEM_EXT_DATASOURCE_REGID>
4ehv

> <PUBCHEM_SUBSTANCE_COMMENT>
PDB code 4ehv, binding affinity data from PDBbind-CN database: IC50=5103uM

> <PUBCHEM_SUBSTANCE_SYNONYM>
4ehv

> <PUBCHEM_XREF_EXT_ID>
4ehv

> <PUBCHEM_EXT_DATASOURCE_URL>
http://www.sioc-ccbg.ac.cn/

> <PUBCHEM_EXT_SUBSTANCE_URL>
http://www.pdbbind-cn.org/quickpdb.asp?quickpdb=4ehv

> <PUBCHEM_CID_ASSOCIATIONS>
42365204  1

> <PUBCHEM_CONFORMER_ID>
0A2964D200010001

> <PUBCHEM_COORDINATE_TYPE>
2
3
4

$$$$
170484868
  -OEChem-11262106393D

 82 84  0     1  0  0  0  0  0999 V2000
   20.1400  -14.4060   30.9500 O   0  0  0  0  0  0  0  0  0  0  0  0
   22.6300  -17.5450   31.2660 O   0  0  0  0  0  0  0  0  0  0  0  0
   21.8440  -12.9750   31.3410 O   0  0  0  0  0  0  0  0  0  0  0  0
   21.8130  -19.2080   28.7600 O   0  0  0  0  0  0  0  0  0  0  0  0
   15.7300  -16.0680   29.2940 O   0  0  0  0  0  0  0  0  0  0  0  0
   21.6430  -11.4740   36.9990 O   0  0  0  0  0  0  0  0  0  0  0  0
   21.5250   -9.0290   36.1510 O   0  0  0  0  0  0  0  0  0  0  0  0
   12.5270  -15.7170   27.7910 O   0  5  0  0  0  0  0  0  0  0  0  0
   13.1750  -15.5400   29.8980 O   0  0  0  0  0  0  0  0  0  0  0  0
   21.7860  -16.1830   29.6390 N   0  0  0  0  0  0  0  0  0  0  0  0
   22.4420  -15.0000   30.2300 C   0  0  1  0  0  0  0  0  0  0  0  0
   23.2710  -14.2870   29.1560 C   0  0  0  0  0  0  0  0  0  0  0  0
   22.4240  -13.8820   27.9400 C   0  0  0  0  0  0  0  0  0  0  0  0
   20.9790  -15.9470   28.3900 C   0  0  0  0  0  0  0  0  0  0  0  0
   21.7980  -15.1420   27.3380 C   0  0  0  0  0  0  0  0  0  0  0  0
   20.0580  -19.2200   30.3990 C   0  0  0  0  0  0  0  0  0  0  0  0
   21.9280  -17.3840   30.2460 C   0  0  0  0  0  0  0  0  0  0  0  0
   21.4900  -14.0060   30.8510 C   0  0  0  0  0  0  0  0  0  0  0  0
   21.2740  -18.6190   29.6960 C   0  0  0  0  0  0  0  0  0  0  0  0
   20.5690  -20.1790   31.4870 C   0  0  0  0  0  0  0  0  0  0  0  0
   19.2030  -13.5170   31.5950 C   0  0  2  0  0  0  0  0  0  0  0  0
   19.2290  -20.0610   29.4280 C   0  0  0  0  0  0  0  0  0  0  0  0
   19.2620  -18.1170   31.1320 C   0  0  0  0  0  0  0  0  0  0  0  0
   18.9360  -14.0850   32.9900 C   0  0  0  0  0  0  0  0  0  0  0  0
   19.5130  -20.7000   32.4280 C   0  0  0  0  0  0  0  0  0  0  0  0
   18.0310  -13.6070   30.6640 C   0  0  0  0  0  0  0  0  0  0  0  0
   18.1850  -13.0880   33.8540 C   0  0  0  0  0  0  0  0  0  0  0  0
   19.0630  -11.9900   34.4320 C   0  0  0  0  0  0  0  0  0  0  0  0
   17.3680  -14.8270   30.4010 C   0  0  0  0  0  0  0  0  0  0  0  0
   17.6600  -12.4320   29.9890 C   0  0  0  0  0  0  0  0  0  0  0  0
   16.3280  -14.8520   29.4810 C   0  0  0  0  0  0  0  0  0  0  0  0
   16.6120  -12.4740   29.0720 C   0  0  0  0  0  0  0  0  0  0  0  0
   19.9730  -12.2800   35.4640 C   0  0  0  0  0  0  0  0  0  0  0  0
   18.9910  -10.6710   33.9580 C   0  0  0  0  0  0  0  0  0  0  0  0
   15.9450  -13.6840   28.8130 C   0  0  0  0  0  0  0  0  0  0  0  0
   20.7460  -11.2490   35.9910 C   0  0  0  0  0  0  0  0  0  0  0  0
   19.7790   -9.6430   34.4940 C   0  0  0  0  0  0  0  0  0  0  0  0
   20.6900   -9.9300   35.5250 C   0  0  0  0  0  0  0  0  0  0  0  0
   14.7510  -16.2980   28.2770 C   0  0  0  0  0  0  0  0  0  0  0  0
   21.6390  -12.6820   37.8000 C   0  0  0  0  0  0  0  0  0  0  0  0
   21.3070   -7.6310   35.8790 C   0  0  0  0  0  0  0  0  0  0  0  0
   13.3870  -15.8000   28.6980 C   0  0  0  0  0  0  0  0  0  0  0  0
   23.1191  -15.3549   31.0209 H   0  0  0  0  0  0  0  0  0  0  0  0
   24.0715  -14.9626   28.8204 H   0  0  0  0  0  0  0  0  0  0  0  0
   23.7153  -13.3816   29.5950 H   0  0  0  0  0  0  0  0  0  0  0  0
   21.6305  -13.1888   28.2558 H   0  0  0  0  0  0  0  0  0  0  0  0
   23.0627  -13.3915   27.1907 H   0  0  0  0  0  0  0  0  0  0  0  0
   20.0724  -15.3807   28.6495 H   0  0  0  0  0  0  0  0  0  0  0  0
   20.6940  -16.9174   27.9575 H   0  0  0  0  0  0  0  0  0  0  0  0
   21.1285  -14.8479   26.5162 H   0  0  0  0  0  0  0  0  0  0  0  0
   22.6002  -15.7842   26.9455 H   0  0  0  0  0  0  0  0  0  0  0  0
   21.3240  -19.6461   32.0837 H   0  0  0  0  0  0  0  0  0  0  0  0
   21.0368  -21.0411   30.9890 H   0  0  0  0  0  0  0  0  0  0  0  0
   19.5761  -12.4849   31.6701 H   0  0  0  0  0  0  0  0  0  0  0  0
   18.3610  -20.4821   29.9565 H   0  0  0  0  0  0  0  0  0  0  0  0
   19.8481  -20.8786   29.0302 H   0  0  0  0  0  0  0  0  0  0  0  0
   18.8814  -19.4274   28.5987 H   0  0  0  0  0  0  0  0  0  0  0  0
   19.9345  -17.5657   31.8056 H   0  0  0  0  0  0  0  0  0  0  0  0
   18.4525  -18.5768   31.7179 H   0  0  0  0  0  0  0  0  0  0  0  0
   18.8324  -17.4232   30.3944 H   0  0  0  0  0  0  0  0  0  0  0  0
   19.8964  -14.3239   33.4701 H   0  0  0  0  0  0  0  0  0  0  0  0
   18.3354  -15.0017   32.8953 H   0  0  0  0  0  0  0  0  0  0  0  0
   19.9774  -21.3730   33.1638 H   0  0  0  0  0  0  0  0  0  0  0  0
   18.7519  -21.2511   31.8562 H   0  0  0  0  0  0  0  0  0  0  0  0
   19.0391  -19.8562   32.9508 H   0  0  0  0  0  0  0  0  0  0  0  0
   17.7192  -13.6339   34.6877 H   0  0  0  0  0  0  0  0  0  0  0  0
   17.4022  -12.6184   33.2403 H   0  0  0  0  0  0  0  0  0  0  0  0
   17.6683  -15.7344   30.9124 H   0  0  0  0  0  0  0  0  0  0  0  0
   18.1838  -11.5023   30.1797 H   0  0  0  0  0  0  0  0  0  0  0  0
   16.3097  -11.5698   28.5561 H   0  0  0  0  0  0  0  0  0  0  0  0
   20.0711  -13.2907   35.8434 H   0  0  0  0  0  0  0  0  0  0  0  0
   18.3042  -10.4398   33.1518 H   0  0  0  0  0  0  0  0  0  0  0  0
   15.1333  -13.7121   28.0951 H   0  0  0  0  0  0  0  0  0  0  0  0
   19.6862   -8.6316   34.1151 H   0  0  0  0  0  0  0  0  0  0  0  0
   15.0568  -15.7713   27.3610 H   0  0  0  0  0  0  0  0  0  0  0  0
   14.6910  -17.3779   28.0764 H   0  0  0  0  0  0  0  0  0  0  0  0
   22.4494  -12.6325   38.5422 H   0  0  0  0  0  0  0  0  0  0  0  0
   21.7918  -13.5547   37.1481 H   0  0  0  0  0  0  0  0  0  0  0  0
   20.6729  -12.7755   38.3176 H   0  0  0  0  0  0  0  0  0  0  0  0
   22.0381   -7.0301   36.4396 H   0  0  0  0  0  0  0  0  0  0  0  0
   20.2889   -7.3517   36.1880 H   0  0  0  0  0  0  0  0  0  0  0  0
   21.4276   -7.4439   34.8018 H   0  0  0  0  0  0  0  0  0  0  0  0
  1 18  1  0  0  0  0
  1 21  1  0  0  0  0
  2 17  2  0  0  0  0
  3 18  2  0  0  0  0
  4 19  2  0  0  0  0
  5 31  1  0  0  0  0
  5 39  1  0  0  0  0
  6 36  1  0  0  0  0
  6 40  1  0  0  0  0
  7 38  1  0  0  0  0
  7 41  1  0  0  0  0
  8 42  1  0  0  0  0
  9 42  2  0  0  0  0
 10 11  1  0  0  0  0
 10 14  1  0  0  0  0
 10 17  1  0  0  0  0
 11 12  1  0  0  0  0
 11 18  1  0  0  0  0
 11 43  1  0  0  0  0
 12 13  1  0  0  0  0
 12 44  1  0  0  0  0
 12 45  1  0  0  0  0
 13 15  1  0  0  0  0
 13 46  1  0  0  0  0
 13 47  1  0  0  0  0
 14 15  1  0  0  0  0
 14 48  1  0  0  0  0
 14 49  1  0  0  0  0
 15 50  1  0  0  0  0
 15 51  1  0  0  0  0
 16 19  1  0  0  0  0
 16 20  1  0  0  0  0
 16 22  1  0  0  0  0
 16 23  1  0  0  0  0
 17 19  1  0  0  0  0
 20 25  1  0  0  0  0
 20 52  1  0  0  0  0
 20 53  1  0  0  0  0
 21 24  1  0  0  0  0
 21 26  1  0  0  0  0
 21 54  1  0  0  0  0
 22 55  1  0  0  0  0
 22 56  1  0  0  0  0
 22 57  1  0  0  0  0
 23 58  1  0  0  0  0
 23 59  1  0  0  0  0
 23 60  1  0  0  0  0
 24 27  1  0  0  0  0
 24 61  1  0  0  0  0
 24 62  1  0  0  0  0
 25 63  1  0  0  0  0
 25 64  1  0  0  0  0
 25 65  1  0  0  0  0
 26 29  2  0  0  0  0
 26 30  1  0  0  0  0
 27 28  1  0  0  0  0
 27 66  1  0  0  0  0
 27 67  1  0  0  0  0
 28 33  2  0  0  0  0
 28 34  1  0  0  0  0
 29 31  1  0  0  0  0
 29 68  1  0  0  0  0
 30 32  2  0  0  0  0
 30 69  1  0  0  0  0
 31 35  2  0  0  0  0
 32 35  1  0  0  0  0
 32 70  1  0  0  0  0
 33 36  1  0  0  0  0
 33 71  1  0  0  0  0
 34 37  2  0  0  0  0
 34 72  1  0  0  0  0
 35 73  1  0  0  0  0
 36 38  2  0  0  0  0
 37 38  1  0  0  0  0
 37 74  1  0  0  0  0
 39 42  1  0  0  0  0
 39 75  1  0  0  0  0
 39 76  1  0  0  0  0
 40 77  1  0  0  0  0
 40 78  1  0  0  0  0
 40 79  1  0  0  0  0
 41 80  1  0  0  0  0
 41 81  1  0  0  0  0
 41 82  1  0  0  0  0
M  CHG  1   8  -1
M  END
> <PUBCHEM_COMPOUND_ID_TYPE>
0

> <PUBCHEM_TOTAL_CHARGE>
-1

> <PUBCHEM_SUBSTANCE_ID>
170484868

> <PUBCHEM_SUBSTANCE_VERSION>
1

> <PUBCHEM_EXT_DATASOURCE_NAME>
Shanghai Institute of Organic Chemistry

> <PUBCHEM_EXT_DATASOURCE_REGID>
4drk

> <PUBCHEM_SUBSTANCE_COMMENT>
PDB code 4drk, binding affinity data from PDBbind-CN database: IC50=8.36uM

> <PUBCHEM_SUBSTANCE_SYNONYM>
4drk

> <PUBCHEM_XREF_EXT_ID>
4drk

> <PUBCHEM_EXT_DATASOURCE_URL>
http://www.sioc-ccbg.ac.cn/

> <PUBCHEM_EXT_SUBSTANCE_URL>
http://www.pdbbind-cn.org/quickpdb.asp?quickpdb=4drk

> <PUBCHEM_CID_ASSOCIATIONS>
72200879  1
10371065  2

> <PUBCHEM_CONFORMER_ID>
0A29648400010001

> <PUBCHEM_COORDINATE_TYPE>
2
3
4

$$$$
170484879
  -OEChem-11262106393D

 16 16  0     0  0  0  0  0  0999 V2000
   18.8660    3.4670   14.4620 O   0  0  0  0  0  0  0  0  0  0  0  0
   14.3640    3.2860   15.9020 O   0  0  0  0  0  0  0  0  0  0  0  0
   15.9630    1.8420   16.8640 O   0  5  0  0  0  0  0  0  0  0  0  0
   17.9450    1.7340   16.0400 O   0  0  0  0  0  0  0  0  0  0  0  0
   16.5880    3.3400   15.1800 C   0  0  0  0  0  0  0  0  0  0  0  0
   17.5730    3.9560   14.4010 C   0  0  0  0  0  0  0  0  0  0  0  0
   15.2980    3.8710   15.1100 C   0  0  0  0  0  0  0  0  0  0  0  0
   17.3010    5.0710   13.6010 C   0  0  0  0  0  0  0  0  0  0  0  0
   15.0440    5.0110   14.3740 C   0  0  0  0  0  0  0  0  0  0  0  0
   15.9890    5.5990   13.5570 C   0  0  0  0  0  0  0  0  0  0  0  0
   16.8350    2.2560   16.0540 C   0  0  0  0  0  0  0  0  0  0  0  0
   18.0918    5.5284   13.0175 H   0  0  0  0  0  0  0  0  0  0  0  0
   14.0612    5.4636   14.4403 H   0  0  0  0  0  0  0  0  0  0  0  0
   15.7364    6.4304   12.9089 H   0  0  0  0  0  0  0  0  0  0  0  0
   18.8917    2.7143   15.0410 H   0  0  0  0  0  0  0  0  0  0  0  0
   14.7389    2.5186   16.3181 H   0  0  0  0  0  0  0  0  0  0  0  0
  1  6  1  0  0  0  0
  1 15  1  0  0  0  0
  2  7  1  0  0  0  0
  2 16  1  0  0  0  0
  3 11  1  0  0  0  0
  4 11  2  0  0  0  0
  5  6  2  0  0  0  0
  5  7  1  0  0  0  0
  5 11  1  0  0  0  0
  6  8  1  0  0  0  0
  7  9  2  0  0  0  0
  8 10  2  0  0  0  0
  8 12  1  0  0  0  0
  9 10  1  0  0  0  0
  9 13  1  0  0  0  0
 10 14  1  0  0  0  0
M  CHG  1   3  -1
M  END
> <PUBCHEM_COMPOUND_ID_TYPE>
0

> <PUBCHEM_TOTAL_CHARGE>
-1

> <PUBCHEM_SUBSTANCE_ID>
170484879

> <PUBCHEM_SUBSTANCE_VERSION>
1

> <PUBCHEM_EXT_DATASOURCE_NAME>
Shanghai Institute of Organic Chemistry

> <PUBCHEM_EXT_DATASOURCE_REGID>
4e3f

> <PUBCHEM_SUBSTANCE_COMMENT>
PDB code 4e3f, binding affinity data from PDBbind-CN database: IC50=3mM

> <PUBCHEM_SUBSTANCE_SYNONYM>
4e3f

> <PUBCHEM_XREF_EXT_ID>
4e3f

> <PUBCHEM_EXT_DATASOURCE_URL>
http://www.sioc-ccbg.ac.cn/

> <PUBCHEM_EXT_SUBSTANCE_URL>
http://www.pdbbind-cn.org/quickpdb.asp?quickpdb=4e3f

> <PUBCHEM_CID_ASSOCIATIONS>
54676638  1
9338  2

> <PUBCHEM_CONFORMER_ID>
0A29648F00010001

> <PUBCHEM_COORDINATE_TYPE>
2
3
4

$$$$
170484878
  -OEChem-11262106393D

 16 16  0     0  0  0  0  0  0999 V2000
   14.4120    4.0670   14.8440 O   0  0  0  0  0  0  0  0  0  0  0  0
   19.3590    5.9540   13.6850 O   0  0  0  0  0  0  0  0  0  0  0  0
   15.3500    2.1830   15.9970 O   0  5  0  0  0  0  0  0  0  0  0  0
   17.5870    1.8570   15.9730 O   0  0  0  0  0  0  0  0  0  0  0  0
   16.7380    3.7470   14.8820 C   0  0  0  0  0  0  0  0  0  0  0  0
   15.6430    4.5300   14.5160 C   0  0  0  0  0  0  0  0  0  0  0  0
   18.0000    4.2460   14.5570 C   0  0  0  0  0  0  0  0  0  0  0  0
   18.1060    5.4670   13.9090 C   0  0  0  0  0  0  0  0  0  0  0  0
   15.7570    5.7290   13.9080 C   0  0  0  0  0  0  0  0  0  0  0  0
   17.0170    6.2110   13.5670 C   0  0  0  0  0  0  0  0  0  0  0  0
   16.5510    2.4600   15.6140 C   0  0  0  0  0  0  0  0  0  0  0  0
   18.8912    3.6829   14.8094 H   0  0  0  0  0  0  0  0  0  0  0  0
   14.8716    6.3138   13.6863 H   0  0  0  0  0  0  0  0  0  0  0  0
   17.1292    7.1534   13.0432 H   0  0  0  0  0  0  0  0  0  0  0  0
   14.4952    3.2179   15.2617 H   0  0  0  0  0  0  0  0  0  0  0  0
   20.0016    5.3182   13.9773 H   0  0  0  0  0  0  0  0  0  0  0  0
  1  6  1  0  0  0  0
  1 15  1  0  0  0  0
  2  8  1  0  0  0  0
  2 16  1  0  0  0  0
  3 11  1  0  0  0  0
  4 11  2  0  0  0  0
  5  6  1  0  0  0  0
  5  7  2  0  0  0  0
  5 11  1  0  0  0  0
  6  9  2  0  0  0  0
  7  8  1  0  0  0  0
  7 12  1  0  0  0  0
  8 10  2  0  0  0  0
  9 10  1  0  0  0  0
  9 13  1  0  0  0  0
 10 14  1  0  0  0  0
M  CHG  1   3  -1
M  END
> <PUBCHEM_COMPOUND_ID_TYPE>
0

> <PUBCHEM_TOTAL_CHARGE>
-1

> <PUBCHEM_SUBSTANCE_ID>
170484878

> <PUBCHEM_SUBSTANCE_VERSION>
1

> <PUBCHEM_EXT_DATASOURCE_NAME>
Shanghai Institute of Organic Chemistry

> <PUBCHEM_EXT_DATASOURCE_REGID>
4e3d

> <PUBCHEM_SUBSTANCE_COMMENT>
PDB code 4e3d, binding affinity data from PDBbind-CN database: IC50=5mM

> <PUBCHEM_SUBSTANCE_SYNONYM>
4e3d

> <PUBCHEM_XREF_EXT_ID>
4e3d

> <PUBCHEM_EXT_DATASOURCE_URL>
http://www.sioc-ccbg.ac.cn/

> <PUBCHEM_EXT_SUBSTANCE_URL>
http://www.pdbbind-cn.org/quickpdb.asp?quickpdb=4e3d

> <PUBCHEM_CID_ASSOCIATIONS>
54675839  1
3469  2

> <PUBCHEM_CONFORMER_ID>
0A29648E00010001

> <PUBCHEM_COORDINATE_TYPE>
2
3
4

$$$$
170484876
  -OEChem-11262106393D

 39 42  0     1  0  0  0  0  0999 V2000
    6.4270  -22.2160   -2.7030 Cl  0  0  0  0  0  0  0  0  0  0  0  0
    5.1610  -17.2320   -2.3180 O   0  0  0  0  0  0  0  0  0  0  0  0
   10.2340  -18.1590   -0.3690 O   0  0  0  0  0  0  0  0  0  0  0  0
    8.3620  -16.5750   -2.7270 N   0  0  0  0  0  0  0  0  0  0  0  0
   10.9070  -20.8370   -0.2950 N   0  0  0  0  0  0  0  0  0  0  0  0
   10.1140  -15.4660   -1.5180 N   0  0  0  0  0  0  0  0  0  0  0  0
    7.8060  -17.1680   -1.5040 C   0  0  2  0  0  0  0  0  0  0  0  0
    8.1430  -18.6520   -1.4750 C   0  0  0  0  0  0  0  0  0  0  0  0
    6.3090  -16.9090   -1.3940 C   0  0  0  0  0  0  0  0  0  0  0  0
    9.3710  -19.0730   -0.8940 C   0  0  0  0  0  0  0  0  0  0  0  0
    7.2540  -19.6360   -2.0230 C   0  0  0  0  0  0  0  0  0  0  0  0
    9.7130  -20.4450   -0.8580 C   0  0  0  0  0  0  0  0  0  0  0  0
    8.8240  -21.4300   -1.4070 C   0  0  0  0  0  0  0  0  0  0  0  0
    7.5850  -21.0190   -1.9940 C   0  0  0  0  0  0  0  0  0  0  0  0
    5.6420  -16.3680   -0.5310 C   0  0  0  0  0  0  0  0  0  0  0  0
    9.4700  -15.7610   -2.7060 C   0  0  0  0  0  0  0  0  0  0  0  0
    9.2090  -22.7930   -1.3490 C   0  0  0  0  0  0  0  0  0  0  0  0
    4.5370  -16.2840   -0.6570 C   0  0  0  0  0  0  0  0  0  0  0  0
    3.9200  -16.7050   -1.6280 C   0  0  0  0  0  0  0  0  0  0  0  0
   10.4420  -23.1490   -0.7630 C   0  0  0  0  0  0  0  0  0  0  0  0
    9.9590  -15.2170   -3.9150 C   0  0  0  0  0  0  0  0  0  0  0  0
   11.2780  -22.1420   -0.2390 C   0  0  0  0  0  0  0  0  0  0  0  0
   11.1030  -14.3780   -3.8870 C   0  0  0  0  0  0  0  0  0  0  0  0
   11.2190  -14.6590   -1.4720 C   0  0  0  0  0  0  0  0  0  0  0  0
   11.7390  -14.0960   -2.6580 C   0  0  0  0  0  0  0  0  0  0  0  0
    8.2566  -16.6958   -0.6310 H   0  0  0  0  0  0  0  0  0  0  0  0
    7.9119  -16.7733   -3.6206 H   0  0  0  0  0  0  0  0  0  0  0  0
    6.3109  -19.3189   -2.4682 H   0  0  0  0  0  0  0  0  0  0  0  0
    6.1229  -15.9673    0.3613 H   0  0  0  0  0  0  0  0  0  0  0  0
    8.5544  -23.5637   -1.7559 H   0  0  0  0  0  0  0  0  0  0  0  0
    3.9693  -15.7957    0.1351 H   0  0  0  0  0  0  0  0  0  0  0  0
    2.8637  -16.7016   -1.8971 H   0  0  0  0  0  0  0  0  0  0  0  0
   10.7459  -24.1947   -0.7158 H   0  0  0  0  0  0  0  0  0  0  0  0
    9.8646  -17.2784   -0.4675 H   0  0  0  0  0  0  0  0  0  0  0  0
    9.4625  -15.4396   -4.8595 H   0  0  0  0  0  0  0  0  0  0  0  0
   12.2309  -22.4135    0.2153 H   0  0  0  0  0  0  0  0  0  0  0  0
   11.4903  -13.9519   -4.8125 H   0  0  0  0  0  0  0  0  0  0  0  0
   11.6993  -14.4503   -0.5160 H   0  0  0  0  0  0  0  0  0  0  0  0
   12.6186  -13.4530   -2.6254 H   0  0  0  0  0  0  0  0  0  0  0  0
  1 14  1  0  0  0  0
  2  9  1  0  0  0  0
  2 19  1  0  0  0  0
  3 10  1  0  0  0  0
  3 34  1  0  0  0  0
  4  7  1  0  0  0  0
  4 16  1  0  0  0  0
  4 27  1  0  0  0  0
  5 12  1  0  0  0  0
  5 22  2  0  0  0  0
  6 16  2  0  0  0  0
  6 24  1  0  0  0  0
  7  8  1  0  0  0  0
  7  9  1  0  0  0  0
  7 26  1  0  0  0  0
  8 10  1  0  0  0  0
  8 11  2  0  0  0  0
  9 15  2  0  0  0  0
 10 12  2  0  0  0  0
 11 14  1  0  0  0  0
 11 28  1  0  0  0  0
 12 13  1  0  0  0  0
 13 14  2  0  0  0  0
 13 17  1  0  0  0  0
 15 18  1  0  0  0  0
 15 29  1  0  0  0  0
 16 21  1  0  0  0  0
 17 20  2  0  0  0  0
 17 30  1  0  0  0  0
 18 19  2  0  0  0  0
 18 31  1  0  0  0  0
 19 32  1  0  0  0  0
 20 22  1  0  0  0  0
 20 33  1  0  0  0  0
 21 23  2  0  0  0  0
 21 35  1  0  0  0  0
 22 36  1  0  0  0  0
 23 25  1  0  0  0  0
 23 37  1  0  0  0  0
 24 25  2  0  0  0  0
 24 38  1  0  0  0  0
 25 39  1  0  0  0  0
M  END
> <PUBCHEM_COMPOUND_ID_TYPE>
0

> <PUBCHEM_TOTAL_CHARGE>
0

> <PUBCHEM_SUBSTANCE_ID>
170484876

> <PUBCHEM_SUBSTANCE_VERSION>
1

> <PUBCHEM_EXT_DATASOURCE_NAME>
Shanghai Institute of Organic Chemistry

> <PUBCHEM_EXT_DATASOURCE_REGID>
4e26

> <PUBCHEM_SUBSTANCE_COMMENT>
PDB code 4e26, binding affinity data from PDBbind-CN database: IC50=0.4uM

> <PUBCHEM_SUBSTANCE_SYNONYM>
4e26

> <PUBCHEM_XREF_EXT_ID>
4e26

> <PUBCHEM_EXT_DATASOURCE_URL>
http://www.sioc-ccbg.ac.cn/

> <PUBCHEM_EXT_SUBSTANCE_URL>
http://www.pdbbind-cn.org/quickpdb.asp?quickpdb=4e26

> <PUBCHEM_CID_ASSOCIATIONS>
1301419  1

> <PUBCHEM_CONFORMER_ID>
0A29648C00010001

> <PUBCHEM_COORDINATE_TYPE>
2
3
4

$$$$
170484875
  -OEChem-11262106393D

 42 45  0     0  0  0  0  0  0999 V2000
   30.5260   -7.0430   29.3300 Cl  0  0  0  0  0  0  0  0  0  0  0  0
   34.6170   -7.0020   26.2220 S   0  0  0  0  0  0  0  0  0  0  0  0
   35.3190   -5.9710   25.4640 O   0  0  0  0  0  0  0  0  0  0  0  0
   35.3480   -7.2750   27.4410 O   0  0  0  0  0  0  0  0  0  0  0  0
   34.4830   -8.3890   25.3680 N   0  0  0  0  0  0  0  0  0  0  0  0
   31.5170  -17.7170   28.0110 N   0  0  0  0  0  0  0  0  0  0  0  0
   30.3150  -17.0300   27.7230 N   0  0  0  0  0  0  0  0  0  0  0  0
   33.8020  -17.0290   28.0980 N   0  0  0  0  0  0  0  0  0  0  0  0
   31.7620  -13.1780   26.9950 C   0  0  0  0  0  0  0  0  0  0  0  0
   32.4820  -11.9010   26.6520 C   0  0  0  0  0  0  0  0  0  0  0  0
   31.9450  -15.5370   27.5700 C   0  0  0  0  0  0  0  0  0  0  0  0
   32.5520  -14.2960   27.3330 C   0  0  0  0  0  0  0  0  0  0  0  0
   30.5700  -15.7150   27.4520 C   0  0  0  0  0  0  0  0  0  0  0  0
   33.8260   -9.5350   25.7740 C   0  0  0  0  0  0  0  0  0  0  0  0
   30.3640  -13.3610   26.8570 C   0  0  0  0  0  0  0  0  0  0  0  0
   33.6410  -11.4690   27.3070 C   0  0  0  0  0  0  0  0  0  0  0  0
   32.0440  -11.1690   25.5190 C   0  0  0  0  0  0  0  0  0  0  0  0
   32.4670  -16.7810   27.8970 C   0  0  0  0  0  0  0  0  0  0  0  0
   29.7660  -14.6140   27.1010 C   0  0  0  0  0  0  0  0  0  0  0  0
   34.2860  -10.2960   26.8710 C   0  0  0  0  0  0  0  0  0  0  0  0
   32.6870   -9.9940   25.0940 C   0  0  0  0  0  0  0  0  0  0  0  0
   33.1050   -6.5290   26.5810 C   0  0  0  0  0  0  0  0  0  0  0  0
   32.4810   -6.9760   27.7630 C   0  0  0  0  0  0  0  0  0  0  0  0
   32.3550   -5.7820   25.6530 C   0  0  0  0  0  0  0  0  0  0  0  0
   31.1560   -6.6210   28.0460 C   0  0  0  0  0  0  0  0  0  0  0  0
   31.0380   -5.4210   25.9300 C   0  0  0  0  0  0  0  0  0  0  0  0
   30.4490   -5.8190   27.1440 C   0  0  0  0  0  0  0  0  0  0  0  0
   33.6346  -14.1952   27.4100 H   0  0  0  0  0  0  0  0  0  0  0  0
   29.7403  -12.5189   26.5571 H   0  0  0  0  0  0  0  0  0  0  0  0
   34.0409  -12.0360   28.1476 H   0  0  0  0  0  0  0  0  0  0  0  0
   31.1806  -11.5295   24.9598 H   0  0  0  0  0  0  0  0  0  0  0  0
   28.6853  -14.7299   27.0182 H   0  0  0  0  0  0  0  0  0  0  0  0
   34.9257   -8.4108   24.4494 H   0  0  0  0  0  0  0  0  0  0  0  0
   35.1771   -9.9615   27.4021 H   0  0  0  0  0  0  0  0  0  0  0  0
   32.3020   -9.4400   24.2379 H   0  0  0  0  0  0  0  0  0  0  0  0
   31.6335  -18.7015   28.2509 H   0  0  0  0  0  0  0  0  0  0  0  0
   33.0339   -7.6030   28.4625 H   0  0  0  0  0  0  0  0  0  0  0  0
   32.8091   -5.4830   24.7083 H   0  0  0  0  0  0  0  0  0  0  0  0
   34.4803  -16.2725   28.0090 H   0  0  0  0  0  0  0  0  0  0  0  0
   34.1157  -17.9698   28.3364 H   0  0  0  0  0  0  0  0  0  0  0  0
   30.4675   -4.8338   25.2104 H   0  0  0  0  0  0  0  0  0  0  0  0
   29.4345   -5.5002   27.3834 H   0  0  0  0  0  0  0  0  0  0  0  0
  1 25  1  0  0  0  0
  2  3  2  0  0  0  0
  2  4  2  0  0  0  0
  2  5  1  0  0  0  0
  2 22  1  0  0  0  0
  5 14  1  0  0  0  0
  5 33  1  0  0  0  0
  6  7  1  0  0  0  0
  6 18  1  0  0  0  0
  6 36  1  0  0  0  0
  7 13  2  0  0  0  0
  8 18  1  0  0  0  0
  8 39  1  0  0  0  0
  8 40  1  0  0  0  0
  9 10  1  0  0  0  0
  9 12  2  0  0  0  0
  9 15  1  0  0  0  0
 10 16  2  0  0  0  0
 10 17  1  0  0  0  0
 11 12  1  0  0  0  0
 11 13  1  0  0  0  0
 11 18  2  0  0  0  0
 12 28  1  0  0  0  0
 13 19  1  0  0  0  0
 14 20  2  0  0  0  0
 14 21  1  0  0  0  0
 15 19  2  0  0  0  0
 15 29  1  0  0  0  0
 16 20  1  0  0  0  0
 16 30  1  0  0  0  0
 17 21  2  0  0  0  0
 17 31  1  0  0  0  0
 19 32  1  0  0  0  0
 20 34  1  0  0  0  0
 21 35  1  0  0  0  0
 22 23  1  0  0  0  0
 22 24  2  0  0  0  0
 23 25  2  0  0  0  0
 23 37  1  0  0  0  0
 24 26  1  0  0  0  0
 24 38  1  0  0  0  0
 25 27  1  0  0  0  0
 26 27  2  0  0  0  0
 26 41  1  0  0  0  0
 27 42  1  0  0  0  0
M  END
> <PUBCHEM_COMPOUND_ID_TYPE>
0

> <PUBCHEM_TOTAL_CHARGE>
0

> <PUBCHEM_SUBSTANCE_ID>
170484875

> <PUBCHEM_SUBSTANCE_VERSION>
1

> <PUBCHEM_EXT_DATASOURCE_NAME>
Shanghai Institute of Organic Chemistry

> <PUBCHEM_EXT_DATASOURCE_REGID>
4e20

> <PUBCHEM_SUBSTANCE_COMMENT>
PDB code 4e20, binding affinity data from PDBbind-CN database: IC50=6nM

> <PUBCHEM_SUBSTANCE_SYNONYM>
4e20

> <PUBCHEM_XREF_EXT_ID>
4e20

> <PUBCHEM_EXT_DATASOURCE_URL>
http://www.sioc-ccbg.ac.cn/

> <PUBCHEM_EXT_SUBSTANCE_URL>
http://www.pdbbind-cn.org/quickpdb.asp?quickpdb=4e20

> <PUBCHEM_CID_ASSOCIATIONS>
60196236  1

> <PUBCHEM_CONFORMER_ID>
0A29648B00010001

> <PUBCHEM_COORDINATE_TYPE>
2
3
4

$$$$
170484874
  -OEChem-11262106393D

 51 55  0     0  0  0  0  0  0999 V2000
   30.5300   -7.2960   29.4990 Cl  0  0  0  0  0  0  0  0  0  0  0  0
   34.8510   -7.5930   26.6580 S   0  0  0  0  0  0  0  0  0  0  0  0
   35.4980   -7.9940   27.8920 O   0  0  0  0  0  0  0  0  0  0  0  0
   35.6770   -6.6130   26.0050 O   0  0  0  0  0  0  0  0  0  0  0  0
   36.3200  -19.0940   29.1090 O   0  0  0  0  0  0  0  0  0  0  0  0
   35.1350  -15.9610   28.6480 O   0  0  0  0  0  0  0  0  0  0  0  0
   31.5440  -18.1480   28.4480 N   0  0  0  0  0  0  0  0  0  0  0  0
   34.6140   -8.8960   25.7370 N   0  0  0  0  0  0  0  0  0  0  0  0
   30.4020  -17.4520   28.0310 N   0  0  0  0  0  0  0  0  0  0  0  0
   33.8030  -17.7590   28.8160 N   0  0  0  0  0  0  0  0  0  0  0  0
   32.1130  -16.0300   27.9680 C   0  0  0  0  0  0  0  0  0  0  0  0
   31.9500  -13.6710   27.3340 C   0  0  0  0  0  0  0  0  0  0  0  0
   32.6670  -12.3910   27.0070 C   0  0  0  0  0  0  0  0  0  0  0  0
   30.7370  -16.1840   27.7360 C   0  0  0  0  0  0  0  0  0  0  0  0
   32.7150  -14.7810   27.7460 C   0  0  0  0  0  0  0  0  0  0  0  0
   32.5670  -17.2900   28.4030 C   0  0  0  0  0  0  0  0  0  0  0  0
   30.5800  -13.8630   27.0530 C   0  0  0  0  0  0  0  0  0  0  0  0
   29.9650  -15.1050   27.2710 C   0  0  0  0  0  0  0  0  0  0  0  0
   33.9940  -10.0370   26.1590 C   0  0  0  0  0  0  0  0  0  0  0  0
   33.8920  -12.0250   27.5920 C   0  0  0  0  0  0  0  0  0  0  0  0
   32.1520  -11.5850   25.9740 C   0  0  0  0  0  0  0  0  0  0  0  0
   34.5360  -10.8550   27.1760 C   0  0  0  0  0  0  0  0  0  0  0  0
   32.7900  -10.4140   25.5600 C   0  0  0  0  0  0  0  0  0  0  0  0
   33.3810   -6.9770   26.9380 C   0  0  0  0  0  0  0  0  0  0  0  0
   32.6260   -7.3780   28.0580 C   0  0  0  0  0  0  0  0  0  0  0  0
   32.8110   -6.0730   26.0300 C   0  0  0  0  0  0  0  0  0  0  0  0
   34.9980  -17.1330   28.9060 C   0  0  0  0  0  0  0  0  0  0  0  0
   31.3470   -6.8490   28.2950 C   0  0  0  0  0  0  0  0  0  0  0  0
   31.5210   -5.5730   26.2460 C   0  0  0  0  0  0  0  0  0  0  0  0
   36.3030  -17.8280   29.1900 C   0  0  0  0  0  0  0  0  0  0  0  0
   30.7930   -5.9640   27.3660 C   0  0  0  0  0  0  0  0  0  0  0  0
   37.5790  -17.2970   29.3580 C   0  0  0  0  0  0  0  0  0  0  0  0
   38.4440  -18.3630   29.4770 C   0  0  0  0  0  0  0  0  0  0  0  0
   37.7150  -19.5290   29.3340 C   0  0  0  0  0  0  0  0  0  0  0  0
   33.7830  -14.6688   27.8935 H   0  0  0  0  0  0  0  0  0  0  0  0
   29.9944  -13.0384   26.6629 H   0  0  0  0  0  0  0  0  0  0  0  0
   28.9050  -15.2314   27.0827 H   0  0  0  0  0  0  0  0  0  0  0  0
   34.3352  -12.6465   28.3617 H   0  0  0  0  0  0  0  0  0  0  0  0
   31.2316  -11.8827   25.4848 H   0  0  0  0  0  0  0  0  0  0  0  0
   35.4712  -10.5695   27.6439 H   0  0  0  0  0  0  0  0  0  0  0  0
   32.3538   -9.8017   24.7790 H   0  0  0  0  0  0  0  0  0  0  0  0
   31.5869  -19.1362   28.7354 H   0  0  0  0  0  0  0  0  0  0  0  0
   34.9434   -8.8661   24.7933 H   0  0  0  0  0  0  0  0  0  0  0  0
   33.8133  -18.7197   29.0936 H   0  0  0  0  0  0  0  0  0  0  0  0
   33.0387   -8.1059   28.7471 H   0  0  0  0  0  0  0  0  0  0  0  0
   33.3717   -5.7598   25.1567 H   0  0  0  0  0  0  0  0  0  0  0  0
   31.0869   -4.8775   25.5369 H   0  0  0  0  0  0  0  0  0  0  0  0
   29.7908   -5.5800   27.5185 H   0  0  0  0  0  0  0  0  0  0  0  0
   37.8430  -16.2409   29.3894 H   0  0  0  0  0  0  0  0  0  0  0  0
   39.5167  -18.2982   29.6533 H   0  0  0  0  0  0  0  0  0  0  0  0
   38.0889  -20.5509   29.3778 H   0  0  0  0  0  0  0  0  0  0  0  0
  1 28  1  0  0  0  0
  2  3  2  0  0  0  0
  2  4  2  0  0  0  0
  2  8  1  0  0  0  0
  2 24  1  0  0  0  0
  5 30  1  0  0  0  0
  5 34  1  0  0  0  0
  6 27  2  0  0  0  0
  7  9  1  0  0  0  0
  7 16  1  0  0  0  0
  7 42  1  0  0  0  0
  8 19  1  0  0  0  0
  8 43  1  0  0  0  0
  9 14  2  0  0  0  0
 10 16  1  0  0  0  0
 10 27  1  0  0  0  0
 10 44  1  0  0  0  0
 11 14  1  0  0  0  0
 11 15  1  0  0  0  0
 11 16  2  0  0  0  0
 12 13  1  0  0  0  0
 12 15  2  0  0  0  0
 12 17  1  0  0  0  0
 13 20  2  0  0  0  0
 13 21  1  0  0  0  0
 14 18  1  0  0  0  0
 15 35  1  0  0  0  0
 17 18  2  0  0  0  0
 17 36  1  0  0  0  0
 18 37  1  0  0  0  0
 19 22  2  0  0  0  0
 19 23  1  0  0  0  0
 20 22  1  0  0  0  0
 20 38  1  0  0  0  0
 21 23  2  0  0  0  0
 21 39  1  0  0  0  0
 22 40  1  0  0  0  0
 23 41  1  0  0  0  0
 24 25  2  0  0  0  0
 24 26  1  0  0  0  0
 25 28  1  0  0  0  0
 25 45  1  0  0  0  0
 26 29  2  0  0  0  0
 26 46  1  0  0  0  0
 27 30  1  0  0  0  0
 28 31  2  0  0  0  0
 29 31  1  0  0  0  0
 29 47  1  0  0  0  0
 30 32  2  0  0  0  0
 31 48  1  0  0  0  0
 32 33  1  0  0  0  0
 32 49  1  0  0  0  0
 33 34  2  0  0  0  0
 33 50  1  0  0  0  0
 34 51  1  0  0  0  0
M  END
> <PUBCHEM_COMPOUND_ID_TYPE>
0

> <PUBCHEM_TOTAL_CHARGE>
0

> <PUBCHEM_SUBSTANCE_ID>
170484874

> <PUBCHEM_SUBSTANCE_VERSION>
1

> <PUBCHEM_EXT_DATASOURCE_NAME>
Shanghai Institute of Organic Chemistry

> <PUBCHEM_EXT_DATASOURCE_REGID>
4e1z

> <PUBCHEM_SUBSTANCE_COMMENT>
PDB code 4e1z, binding affinity data from PDBbind-CN database: IC50=3nM

> <PUBCHEM_SUBSTANCE_SYNONYM>
4e1z

> <PUBCHEM_XREF_EXT_ID>
4e1z

> <PUBCHEM_EXT_DATASOURCE_URL>
http://www.sioc-ccbg.ac.cn/

> <PUBCHEM_EXT_SUBSTANCE_URL>
http://www.pdbbind-cn.org/quickpdb.asp?quickpdb=4e1z

> <PUBCHEM_CID_ASSOCIATIONS>
60196235  1

> <PUBCHEM_CONFORMER_ID>
0A29648A00010001

> <PUBCHEM_COORDINATE_TYPE>
2
3
4

$$$$
170484871
  -OEChem-11262106393D

 84 87  0     1  0  0  0  0  0999 V2000
   29.4600   13.0420  -21.1970 O   0  0  0  0  0  0  0  0  0  0  0  0
   26.8110   13.5340  -18.7790 O   0  0  0  0  0  0  0  0  0  0  0  0
   29.3010   15.2920  -18.7890 O   0  0  0  0  0  0  0  0  0  0  0  0
   32.1590   12.6910  -18.9450 O   0  0  0  0  0  0  0  0  0  0  0  0
   33.3680   13.5940  -17.2980 O   0  0  0  0  0  0  0  0  0  0  0  0
   37.7170   16.8300  -19.7650 O   0  0  0  0  0  0  0  0  0  0  0  0
   39.2910   15.3170  -18.3720 O   0  0  0  0  0  0  0  0  0  0  0  0
   29.8190   13.2880  -17.8540 N   0  0  0  0  0  0  0  0  0  0  0  0
   27.1120   13.6370  -21.8030 C   0  0  2  0  0  0  0  0  0  0  0  0
   28.0580   12.9190  -20.8130 C   0  0  1  0  0  0  0  0  0  0  0  0
   27.2430   13.0080  -23.2020 C   0  0  0  0  0  0  0  0  0  0  0  0
   27.7590   11.3930  -20.7800 C   0  0  0  0  0  0  0  0  0  0  0  0
   26.8060   11.5470  -23.1380 C   0  0  0  0  0  0  0  0  0  0  0  0
   27.7130   10.7510  -22.1750 C   0  0  0  0  0  0  0  0  0  0  0  0
   27.3960   15.1500  -21.8090 C   0  0  0  0  0  0  0  0  0  0  0  0
   27.8790   13.5230  -19.3750 C   0  0  0  0  0  0  0  0  0  0  0  0
   29.0860   14.0900  -18.6340 C   0  0  0  0  0  0  0  0  0  0  0  0
   31.0070   13.8190  -17.1570 C   0  0  1  0  0  0  0  0  0  0  0  0
   26.3140   15.9000  -22.6000 C   0  0  0  0  0  0  0  0  0  0  0  0
   29.4750   11.8370  -17.6730 C   0  0  0  0  0  0  0  0  0  0  0  0
   31.0140   13.4050  -15.6880 C   0  0  0  0  0  0  0  0  0  0  0  0
   29.4830   11.4810  -16.1910 C   0  0  0  0  0  0  0  0  0  0  0  0
   30.7930   11.9140  -15.5360 C   0  0  0  0  0  0  0  0  0  0  0  0
   32.2910   13.3600  -17.7990 C   0  0  0  0  0  0  0  0  0  0  0  0
   33.3540   12.2380  -19.6040 C   0  0  2  0  0  0  0  0  0  0  0  0
   33.6660   13.1700  -20.7760 C   0  0  0  0  0  0  0  0  0  0  0  0
   33.0640   10.7900  -19.9910 C   0  0  0  0  0  0  0  0  0  0  0  0
   35.0620   12.9040  -21.3490 C   0  0  0  0  0  0  0  0  0  0  0  0
   36.1960   13.5400  -20.5460 C   0  0  0  0  0  0  0  0  0  0  0  0
   33.8890    9.7630  -19.5520 C   0  0  0  0  0  0  0  0  0  0  0  0
   31.9550   10.4950  -20.7810 C   0  0  0  0  0  0  0  0  0  0  0  0
   33.5860    8.4660  -19.9190 C   0  0  0  0  0  0  0  0  0  0  0  0
   31.6720    9.1860  -21.1480 C   0  0  0  0  0  0  0  0  0  0  0  0
   36.3960   14.9240  -20.5470 C   0  0  0  0  0  0  0  0  0  0  0  0
   37.0330   12.7480  -19.7720 C   0  0  0  0  0  0  0  0  0  0  0  0
   32.4980    8.1640  -20.7080 C   0  0  0  0  0  0  0  0  0  0  0  0
   37.4290   15.4940  -19.8080 C   0  0  0  0  0  0  0  0  0  0  0  0
   38.0850   13.3090  -19.0310 C   0  0  0  0  0  0  0  0  0  0  0  0
   38.2940   14.6780  -19.0500 C   0  0  0  0  0  0  0  0  0  0  0  0
   36.9920   17.6960  -20.6870 C   0  0  0  0  0  0  0  0  0  0  0  0
   40.2610   14.4640  -17.7570 C   0  0  0  0  0  0  0  0  0  0  0  0
   26.0779   13.5081  -21.4835 H   0  0  0  0  0  0  0  0  0  0  0  0
   28.2798   13.0656  -23.5335 H   0  0  0  0  0  0  0  0  0  0  0  0
   26.6111   13.5484  -23.9068 H   0  0  0  0  0  0  0  0  0  0  0  0
   28.5632   10.9122  -20.2230 H   0  0  0  0  0  0  0  0  0  0  0  0
   26.7779   11.2598  -20.3241 H   0  0  0  0  0  0  0  0  0  0  0  0
   26.8805   11.1118  -24.1346 H   0  0  0  0  0  0  0  0  0  0  0  0
   25.7790   11.5008  -22.7756 H   0  0  0  0  0  0  0  0  0  0  0  0
   28.7237   10.7415  -22.5830 H   0  0  0  0  0  0  0  0  0  0  0  0
   27.3100    9.7430  -22.0768 H   0  0  0  0  0  0  0  0  0  0  0  0
   27.3977   15.5131  -20.7813 H   0  0  0  0  0  0  0  0  0  0  0  0
   28.3633   15.3259  -22.2796 H   0  0  0  0  0  0  0  0  0  0  0  0
   29.7004   13.9707  -21.2333 H   0  0  0  0  0  0  0  0  0  0  0  0
   30.9469   14.9048  -17.2317 H   0  0  0  0  0  0  0  0  0  0  0  0
   26.3011   15.5384  -23.6282 H   0  0  0  0  0  0  0  0  0  0  0  0
   25.3418   15.7244  -22.1396 H   0  0  0  0  0  0  0  0  0  0  0  0
   26.5339   16.9675  -22.5916 H   0  0  0  0  0  0  0  0  0  0  0  0
   30.2127   11.2258  -18.1929 H   0  0  0  0  0  0  0  0  0  0  0  0
   28.4820   11.6500  -18.0816 H   0  0  0  0  0  0  0  0  0  0  0  0
   31.9844   13.6575  -15.2607 H   0  0  0  0  0  0  0  0  0  0  0  0
   30.2076   13.9296  -15.1756 H   0  0  0  0  0  0  0  0  0  0  0  0
   29.3792   10.4008  -16.0885 H   0  0  0  0  0  0  0  0  0  0  0  0
   28.6576   11.9976  -15.7011 H   0  0  0  0  0  0  0  0  0  0  0  0
   31.6154   11.3888  -16.0217 H   0  0  0  0  0  0  0  0  0  0  0  0
   30.7465   11.6754  -14.4734 H   0  0  0  0  0  0  0  0  0  0  0  0
   34.2521   12.2645  -18.9869 H   0  0  0  0  0  0  0  0  0  0  0  0
   33.6301   14.1989  -20.4179 H   0  0  0  0  0  0  0  0  0  0  0  0
   32.9312   12.9945  -21.5617 H   0  0  0  0  0  0  0  0  0  0  0  0
   35.0896   13.3397  -22.3478 H   0  0  0  0  0  0  0  0  0  0  0  0
   35.2186   11.8255  -21.3306 H   0  0  0  0  0  0  0  0  0  0  0  0
   34.7585    9.9759  -18.9301 H   0  0  0  0  0  0  0  0  0  0  0  0
   31.3018   11.3012  -21.1149 H   0  0  0  0  0  0  0  0  0  0  0  0
   34.2282    7.6560  -19.5733 H   0  0  0  0  0  0  0  0  0  0  0  0
   30.8089    8.9646  -21.7758 H   0  0  0  0  0  0  0  0  0  0  0  0
   35.7358   15.5636  -21.1328 H   0  0  0  0  0  0  0  0  0  0  0  0
   36.8704   11.6707  -19.7390 H   0  0  0  0  0  0  0  0  0  0  0  0
   32.2887    7.1304  -20.9838 H   0  0  0  0  0  0  0  0  0  0  0  0
   38.7380   12.6666  -18.4401 H   0  0  0  0  0  0  0  0  0  0  0  0
   37.1962   17.3855  -21.7117 H   0  0  0  0  0  0  0  0  0  0  0  0
   35.9227   17.6207  -20.4894 H   0  0  0  0  0  0  0  0  0  0  0  0
   37.3170   18.7269  -20.5468 H   0  0  0  0  0  0  0  0  0  0  0  0
   39.7658   13.8132  -17.0364 H   0  0  0  0  0  0  0  0  0  0  0  0
   40.7470   13.8581  -18.5217 H   0  0  0  0  0  0  0  0  0  0  0  0
   41.0066   15.0731  -17.2460 H   0  0  0  0  0  0  0  0  0  0  0  0
  1 10  1  0  0  0  0
  1 53  1  0  0  0  0
  2 16  2  0  0  0  0
  3 17  2  0  0  0  0
  4 24  1  0  0  0  0
  4 25  1  0  0  0  0
  5 24  2  0  0  0  0
  6 37  1  0  0  0  0
  6 40  1  0  0  0  0
  7 39  1  0  0  0  0
  7 41  1  0  0  0  0
  8 17  1  0  0  0  0
  8 18  1  0  0  0  0
  8 20  1  0  0  0  0
  9 10  1  0  0  0  0
  9 11  1  0  0  0  0
  9 15  1  0  0  0  0
  9 42  1  0  0  0  0
 10 12  1  0  0  0  0
 10 16  1  0  0  0  0
 11 13  1  0  0  0  0
 11 43  1  0  0  0  0
 11 44  1  0  0  0  0
 12 14  1  0  0  0  0
 12 45  1  0  0  0  0
 12 46  1  0  0  0  0
 13 14  1  0  0  0  0
 13 47  1  0  0  0  0
 13 48  1  0  0  0  0
 14 49  1  0  0  0  0
 14 50  1  0  0  0  0
 15 19  1  0  0  0  0
 15 51  1  0  0  0  0
 15 52  1  0  0  0  0
 16 17  1  0  0  0  0
 18 21  1  0  0  0  0
 18 24  1  0  0  0  0
 18 54  1  0  0  0  0
 19 55  1  0  0  0  0
 19 56  1  0  0  0  0
 19 57  1  0  0  0  0
 20 22  1  0  0  0  0
 20 58  1  0  0  0  0
 20 59  1  0  0  0  0
 21 23  1  0  0  0  0
 21 60  1  0  0  0  0
 21 61  1  0  0  0  0
 22 23  1  0  0  0  0
 22 62  1  0  0  0  0
 22 63  1  0  0  0  0
 23 64  1  0  0  0  0
 23 65  1  0  0  0  0
 25 26  1  0  0  0  0
 25 27  1  0  0  0  0
 25 66  1  0  0  0  0
 26 28  1  0  0  0  0
 26 67  1  0  0  0  0
 26 68  1  0  0  0  0
 27 30  2  0  0  0  0
 27 31  1  0  0  0  0
 28 29  1  0  0  0  0
 28 69  1  0  0  0  0
 28 70  1  0  0  0  0
 29 34  1  0  0  0  0
 29 35  2  0  0  0  0
 30 32  1  0  0  0  0
 30 71  1  0  0  0  0
 31 33  2  0  0  0  0
 31 72  1  0  0  0  0
 32 36  2  0  0  0  0
 32 73  1  0  0  0  0
 33 36  1  0  0  0  0
 33 74  1  0  0  0  0
 34 37  2  0  0  0  0
 34 75  1  0  0  0  0
 35 38  1  0  0  0  0
 35 76  1  0  0  0  0
 36 77  1  0  0  0  0
 37 39  1  0  0  0  0
 38 39  2  0  0  0  0
 38 78  1  0  0  0  0
 40 79  1  0  0  0  0
 40 80  1  0  0  0  0
 40 81  1  0  0  0  0
 41 82  1  0  0  0  0
 41 83  1  0  0  0  0
 41 84  1  0  0  0  0
M  END
> <PUBCHEM_COMPOUND_ID_TYPE>
0

> <PUBCHEM_TOTAL_CHARGE>
0

> <PUBCHEM_SUBSTANCE_ID>
170484871

> <PUBCHEM_SUBSTANCE_VERSION>
1

> <PUBCHEM_EXT_DATASOURCE_NAME>
Shanghai Institute of Organic Chemistry

> <PUBCHEM_EXT_DATASOURCE_REGID>
4dro

> <PUBCHEM_SUBSTANCE_COMMENT>
PDB code 4dro, binding affinity data from PDBbind-CN database: IC50=3.9uM

> <PUBCHEM_SUBSTANCE_SYNONYM>
4dro

> <PUBCHEM_XREF_EXT_ID>
4dro

> <PUBCHEM_EXT_DATASOURCE_URL>
http://www.sioc-ccbg.ac.cn/

> <PUBCHEM_EXT_SUBSTANCE_URL>
http://www.pdbbind-cn.org/quickpdb.asp?quickpdb=4dro

> <PUBCHEM_CID_ASSOCIATIONS>
56962329  1

> <PUBCHEM_CONFORMER_ID>
0A29648700010001

> <PUBCHEM_COORDINATE_TYPE>
2
3
4

$$$$
170484870
  -OEChem-11262106393D

 90 93  0     1  0  0  0  0  0999 V2000
    4.0360   -0.2250   -9.5680 O   0  0  0  0  0  0  0  0  0  0  0  0
    4.9270   -1.5760   -7.4130 O   0  0  0  0  0  0  0  0  0  0  0  0
    7.6730   -0.2400   -6.9960 O   0  0  0  0  0  0  0  0  0  0  0  0
    9.9570   -1.8950   -9.4410 O   0  0  0  0  0  0  0  0  0  0  0  0
   11.4840   -2.6490   -7.9810 O   0  0  0  0  0  0  0  0  0  0  0  0
    8.1570   -3.0810  -14.1830 O   0  0  0  0  0  0  0  0  0  0  0  0
   15.7840    1.4300   -8.3790 O   0  0  0  0  0  0  0  0  0  0  0  0
   17.2860   -0.6150   -8.7650 O   0  0  0  0  0  0  0  0  0  0  0  0
    9.8760   -3.1730  -16.5290 O   0  5  0  0  0  0  0  0  0  0  0  0
    8.7710   -4.9890  -17.1860 O   0  0  0  0  0  0  0  0  0  0  0  0
    7.8930   -2.3270   -7.8090 N   0  0  0  0  0  0  0  0  0  0  0  0
    6.0830    1.0530   -9.4980 C   0  0  1  0  0  0  0  0  0  0  0  0
    5.4670   -0.3380   -9.4450 C   0  0  2  0  0  0  0  0  0  0  0  0
    5.8530    1.6830  -10.8990 C   0  0  0  0  0  0  0  0  0  0  0  0
    6.0220   -1.2270  -10.5690 C   0  0  0  0  0  0  0  0  0  0  0  0
    6.4490    0.7800  -12.0010 C   0  0  0  0  0  0  0  0  0  0  0  0
    5.8110   -0.6050  -11.9460 C   0  0  0  0  0  0  0  0  0  0  0  0
    5.3800    1.9420   -8.4980 C   0  0  0  0  0  0  0  0  0  0  0  0
    5.7960   -1.0600   -8.1270 C   0  0  0  0  0  0  0  0  0  0  0  0
    7.2130   -1.1940   -7.6250 C   0  0  0  0  0  0  0  0  0  0  0  0
    9.2400   -2.4430   -7.2180 C   0  0  1  0  0  0  0  0  0  0  0  0
    5.9180    3.3580   -8.5660 C   0  0  0  0  0  0  0  0  0  0  0  0
    7.3630   -3.4770   -8.5690 C   0  0  0  0  0  0  0  0  0  0  0  0
    9.3640   -3.7870   -6.4610 C   0  0  0  0  0  0  0  0  0  0  0  0
    7.5210   -4.7840   -7.7920 C   0  0  0  0  0  0  0  0  0  0  0  0
    8.9670   -4.9340   -7.3480 C   0  0  0  0  0  0  0  0  0  0  0  0
   10.3430   -2.3530   -8.2480 C   0  0  0  0  0  0  0  0  0  0  0  0
   10.9870   -1.8150  -10.4700 C   0  0  2  0  0  0  0  0  0  0  0  0
   11.1690   -0.3600  -10.8540 C   0  0  0  0  0  0  0  0  0  0  0  0
   10.5620   -2.7220  -11.5950 C   0  0  0  0  0  0  0  0  0  0  0  0
   12.4220   -0.1540  -11.6970 C   0  0  0  0  0  0  0  0  0  0  0  0
    9.4700   -2.4610  -12.3710 C   0  0  0  0  0  0  0  0  0  0  0  0
   11.2840   -3.8880  -11.7660 C   0  0  0  0  0  0  0  0  0  0  0  0
   13.7150   -0.3270  -10.9020 C   0  0  0  0  0  0  0  0  0  0  0  0
    9.1610   -3.3830  -13.3640 C   0  0  0  0  0  0  0  0  0  0  0  0
   10.9970   -4.8130  -12.7370 C   0  0  0  0  0  0  0  0  0  0  0  0
   14.1230    0.6500  -10.0000 C   0  0  0  0  0  0  0  0  0  0  0  0
   14.5590   -1.4280  -11.1040 C   0  0  0  0  0  0  0  0  0  0  0  0
    9.9200   -4.5250  -13.5370 C   0  0  0  0  0  0  0  0  0  0  0  0
   15.3220    0.5250   -9.2830 C   0  0  0  0  0  0  0  0  0  0  0  0
   15.7580   -1.5840  -10.3890 C   0  0  0  0  0  0  0  0  0  0  0  0
   16.1390   -0.5900   -9.4880 C   0  0  0  0  0  0  0  0  0  0  0  0
    7.9210   -3.9680  -15.2570 C   0  0  0  0  0  0  0  0  0  0  0  0
   15.0400    2.6390   -8.1960 C   0  0  0  0  0  0  0  0  0  0  0  0
    8.9430   -4.0250  -16.4020 C   0  0  0  0  0  0  0  0  0  0  0  0
   18.2760   -1.6540   -9.0200 C   0  0  0  0  0  0  0  0  0  0  0  0
    7.1587    0.9957   -9.2755 H   0  0  0  0  0  0  0  0  0  0  0  0
    6.3387    2.6692  -10.9369 H   0  0  0  0  0  0  0  0  0  0  0  0
    4.7728    1.7994  -11.0710 H   0  0  0  0  0  0  0  0  0  0  0  0
    7.1001   -1.3732  -10.4067 H   0  0  0  0  0  0  0  0  0  0  0  0
    5.5110   -2.2006  -10.5369 H   0  0  0  0  0  0  0  0  0  0  0  0
    7.5343    0.6869  -11.8477 H   0  0  0  0  0  0  0  0  0  0  0  0
    6.2551    1.2310  -12.9854 H   0  0  0  0  0  0  0  0  0  0  0  0
    6.2721   -1.2483  -12.7099 H   0  0  0  0  0  0  0  0  0  0  0  0
    4.7325   -0.5165  -12.1435 H   0  0  0  0  0  0  0  0  0  0  0  0
    4.3029    1.9542   -8.7208 H   0  0  0  0  0  0  0  0  0  0  0  0
    5.5405    1.5433   -7.4855 H   0  0  0  0  0  0  0  0  0  0  0  0
    3.6448   -1.0885   -9.5065 H   0  0  0  0  0  0  0  0  0  0  0  0
    9.3707   -1.6185   -6.5017 H   0  0  0  0  0  0  0  0  0  0  0  0
    5.3927    3.9855   -7.8310 H   0  0  0  0  0  0  0  0  0  0  0  0
    5.7570    3.7634   -9.5758 H   0  0  0  0  0  0  0  0  0  0  0  0
    6.9946    3.3525   -8.3405 H   0  0  0  0  0  0  0  0  0  0  0  0
    7.9091   -3.5588   -9.5204 H   0  0  0  0  0  0  0  0  0  0  0  0
    6.2951   -3.3092   -8.7724 H   0  0  0  0  0  0  0  0  0  0  0  0
   10.4063   -3.9245   -6.1374 H   0  0  0  0  0  0  0  0  0  0  0  0
    8.7060   -3.7672   -5.5797 H   0  0  0  0  0  0  0  0  0  0  0  0
    7.2454   -5.6308   -8.4377 H   0  0  0  0  0  0  0  0  0  0  0  0
    6.8655   -4.7678   -6.9088 H   0  0  0  0  0  0  0  0  0  0  0  0
    9.6186   -4.9494   -8.2341 H   0  0  0  0  0  0  0  0  0  0  0  0
    9.0800   -5.8771   -6.7933 H   0  0  0  0  0  0  0  0  0  0  0  0
   11.9419   -2.1849  -10.0685 H   0  0  0  0  0  0  0  0  0  0  0  0
   11.2522    0.2432   -9.9379 H   0  0  0  0  0  0  0  0  0  0  0  0
   10.2924   -0.0310  -11.4314 H   0  0  0  0  0  0  0  0  0  0  0  0
   12.4005    0.8641  -12.1129 H   0  0  0  0  0  0  0  0  0  0  0  0
   12.4156   -0.8858  -12.5182 H   0  0  0  0  0  0  0  0  0  0  0  0
    8.8689   -1.5718  -12.2192 H   0  0  0  0  0  0  0  0  0  0  0  0
   12.1176   -4.0808  -11.1004 H   0  0  0  0  0  0  0  0  0  0  0  0
   11.5842   -5.7152  -12.8645 H   0  0  0  0  0  0  0  0  0  0  0  0
   13.5020    1.5254   -9.8481 H   0  0  0  0  0  0  0  0  0  0  0  0
   14.2784   -2.1801  -11.8325 H   0  0  0  0  0  0  0  0  0  0  0  0
    9.6560   -5.2153  -14.3300 H   0  0  0  0  0  0  0  0  0  0  0  0
   16.3766   -2.4621  -10.5351 H   0  0  0  0  0  0  0  0  0  0  0  0
    6.9531   -3.6905  -15.7000 H   0  0  0  0  0  0  0  0  0  0  0  0
    7.8532   -4.9805  -14.8324 H   0  0  0  0  0  0  0  0  0  0  0  0
   15.5361    3.2637   -7.4386 H   0  0  0  0  0  0  0  0  0  0  0  0
   14.0212    2.3954   -7.8602 H   0  0  0  0  0  0  0  0  0  0  0  0
   14.9910    3.1871   -9.1484 H   0  0  0  0  0  0  0  0  0  0  0  0
   19.1336   -1.5169   -8.3449 H   0  0  0  0  0  0  0  0  0  0  0  0
   18.6168   -1.5875  -10.0637 H   0  0  0  0  0  0  0  0  0  0  0  0
   17.8248   -2.6416   -8.8437 H   0  0  0  0  0  0  0  0  0  0  0  0
  1 13  1  0  0  0  0
  1 58  1  0  0  0  0
  2 19  2  0  0  0  0
  3 20  2  0  0  0  0
  4 27  1  0  0  0  0
  4 28  1  0  0  0  0
  5 27  2  0  0  0  0
  6 35  1  0  0  0  0
  6 43  1  0  0  0  0
  7 40  1  0  0  0  0
  7 44  1  0  0  0  0
  8 42  1  0  0  0  0
  8 46  1  0  0  0  0
  9 45  1  0  0  0  0
 10 45  2  0  0  0  0
 11 20  1  0  0  0  0
 11 21  1  0  0  0  0
 11 23  1  0  0  0  0
 12 13  1  0  0  0  0
 12 14  1  0  0  0  0
 12 18  1  0  0  0  0
 12 47  1  0  0  0  0
 13 15  1  0  0  0  0
 13 19  1  0  0  0  0
 14 16  1  0  0  0  0
 14 48  1  0  0  0  0
 14 49  1  0  0  0  0
 15 17  1  0  0  0  0
 15 50  1  0  0  0  0
 15 51  1  0  0  0  0
 16 17  1  0  0  0  0
 16 52  1  0  0  0  0
 16 53  1  0  0  0  0
 17 54  1  0  0  0  0
 17 55  1  0  0  0  0
 18 22  1  0  0  0  0
 18 56  1  0  0  0  0
 18 57  1  0  0  0  0
 19 20  1  0  0  0  0
 21 24  1  0  0  0  0
 21 27  1  0  0  0  0
 21 59  1  0  0  0  0
 22 60  1  0  0  0  0
 22 61  1  0  0  0  0
 22 62  1  0  0  0  0
 23 25  1  0  0  0  0
 23 63  1  0  0  0  0
 23 64  1  0  0  0  0
 24 26  1  0  0  0  0
 24 65  1  0  0  0  0
 24 66  1  0  0  0  0
 25 26  1  0  0  0  0
 25 67  1  0  0  0  0
 25 68  1  0  0  0  0
 26 69  1  0  0  0  0
 26 70  1  0  0  0  0
 28 29  1  0  0  0  0
 28 30  1  0  0  0  0
 28 71  1  0  0  0  0
 29 31  1  0  0  0  0
 29 72  1  0  0  0  0
 29 73  1  0  0  0  0
 30 32  1  0  0  0  0
 30 33  2  0  0  0  0
 31 34  1  0  0  0  0
 31 74  1  0  0  0  0
 31 75  1  0  0  0  0
 32 35  2  0  0  0  0
 32 76  1  0  0  0  0
 33 36  1  0  0  0  0
 33 77  1  0  0  0  0
 34 37  1  0  0  0  0
 34 38  2  0  0  0  0
 35 39  1  0  0  0  0
 36 39  2  0  0  0  0
 36 78  1  0  0  0  0
 37 40  2  0  0  0  0
 37 79  1  0  0  0  0
 38 41  1  0  0  0  0
 38 80  1  0  0  0  0
 39 81  1  0  0  0  0
 40 42  1  0  0  0  0
 41 42  2  0  0  0  0
 41 82  1  0  0  0  0
 43 45  1  0  0  0  0
 43 83  1  0  0  0  0
 43 84  1  0  0  0  0
 44 85  1  0  0  0  0
 44 86  1  0  0  0  0
 44 87  1  0  0  0  0
 46 88  1  0  0  0  0
 46 89  1  0  0  0  0
 46 90  1  0  0  0  0
M  CHG  1   9  -1
M  END
> <PUBCHEM_COMPOUND_ID_TYPE>
0

> <PUBCHEM_TOTAL_CHARGE>
-1

> <PUBCHEM_SUBSTANCE_ID>
170484870

> <PUBCHEM_SUBSTANCE_VERSION>
1

> <PUBCHEM_EXT_DATASOURCE_NAME>
Shanghai Institute of Organic Chemistry

> <PUBCHEM_EXT_DATASOURCE_REGID>
4drn

> <PUBCHEM_SUBSTANCE_COMMENT>
PDB code 4drn, binding affinity data from PDBbind-CN database: IC50=5.8uM

> <PUBCHEM_SUBSTANCE_SYNONYM>
4drn

> <PUBCHEM_XREF_EXT_ID>
4drn

> <PUBCHEM_EXT_DATASOURCE_URL>
http://www.sioc-ccbg.ac.cn/

> <PUBCHEM_EXT_SUBSTANCE_URL>
http://www.pdbbind-cn.org/quickpdb.asp?quickpdb=4drn

> <PUBCHEM_CID_ASSOCIATIONS>
72200880  1
56962328  2

> <PUBCHEM_CONFORMER_ID>
0A29648600010001

> <PUBCHEM_COORDINATE_TYPE>
2
3
4

$$$$
170484864
  -OEChem-11262106393D

 86 89  0     1  0  0  0  0  0999 V2000
   -3.7460    4.7230   20.1540 O   0  0  0  0  0  0  0  0  0  0  0  0
   -4.9760    0.6120   20.6100 O   0  0  0  0  0  0  0  0  0  0  0  0
   -6.1840   -4.0010   16.0000 O   0  0  0  0  0  0  0  0  0  0  0  0
   -7.3940    2.7290   17.8780 O   0  0  0  0  0  0  0  0  0  0  0  0
   -4.5550   -2.9050   17.5850 N   0  3  0  0  0  0  0  0  0  0  0  0
   -4.1300    5.9700   17.5270 N   0  3  0  0  0  0  0  0  0  0  0  0
   -5.2480    1.9280   18.3100 N   0  0  0  0  0  0  0  0  0  0  0  0
   -4.9970    2.7420   19.4720 C   0  0  2  0  0  0  0  0  0  0  0  0
   -4.1610    3.9310   19.0150 C   0  0  1  0  0  0  0  0  0  0  0  0
   -3.8820   -4.0720   18.0850 C   0  0  2  0  0  0  0  0  0  0  0  0
   -4.8840    4.7840   17.9550 C   0  0  0  0  0  0  0  0  0  0  0  0
   -5.7040   -2.9470   16.8500 C   0  0  1  0  0  0  0  0  0  0  0  0
   -3.8310   -3.9130   19.6080 C   0  0  0  0  0  0  0  0  0  0  0  0
   -4.2620    1.8610   20.4580 C   0  0  0  0  0  0  0  0  0  0  0  0
   -4.8810    7.1310   16.9430 C   0  0  0  0  0  0  0  0  0  0  0  0
   -2.5530   -4.2850   17.3670 C   0  0  0  0  0  0  0  0  0  0  0  0
   -6.3920   -1.6900   16.4540 C   0  0  0  0  0  0  0  0  0  0  0  0
   -6.7020    0.6800   16.8830 C   0  0  0  0  0  0  0  0  0  0  0  0
   -5.9300    7.6610   17.9220 C   0  0  0  0  0  0  0  0  0  0  0  0
   -6.1650   -0.5570   17.2340 C   0  0  0  0  0  0  0  0  0  0  0  0
   -6.4460    1.8840   17.7320 C   0  0  0  0  0  0  0  0  0  0  0  0
   -3.6130   -2.4890   20.0920 C   0  0  0  0  0  0  0  0  0  0  0  0
   -7.2900   -1.5900   15.3580 C   0  0  0  0  0  0  0  0  0  0  0  0
   -4.1540   -0.4140   21.2310 C   0  0  0  0  0  0  0  0  0  0  0  0
   -7.8740   -0.3620   15.0450 C   0  0  0  0  0  0  0  0  0  0  0  0
   -1.7190   -3.2030   17.0700 C   0  0  0  0  0  0  0  0  0  0  0  0
   -2.2010   -5.5540   16.8760 C   0  0  0  0  0  0  0  0  0  0  0  0
   -7.5710    0.8070   15.7960 C   0  0  0  0  0  0  0  0  0  0  0  0
   -4.5270   -1.8210   20.8140 C   0  0  0  0  0  0  0  0  0  0  0  0
   -5.5210    8.1460   19.1550 C   0  0  0  0  0  0  0  0  0  0  0  0
   -6.4400    8.6080   20.0920 C   0  0  0  0  0  0  0  0  0  0  0  0
   -5.8240    9.0420   21.3870 C   0  0  0  0  0  0  0  0  0  0  0  0
   -7.2850    7.6800   17.5910 C   0  0  0  0  0  0  0  0  0  0  0  0
   -0.5010   -3.3610   16.4140 C   0  0  0  0  0  0  0  0  0  0  0  0
   -0.9920   -5.7390   16.1720 C   0  0  0  0  0  0  0  0  0  0  0  0
   -7.7760    8.6230   19.7660 C   0  0  0  0  0  0  0  0  0  0  0  0
   -8.8380   -0.2240   13.8750 C   0  0  0  0  0  0  0  0  0  0  0  0
   -8.2010    8.1320   18.5330 C   0  0  0  0  0  0  0  0  0  0  0  0
   -0.1510   -4.6340   15.9610 C   0  0  0  0  0  0  0  0  0  0  0  0
   -5.2670   10.4460   21.2630 C   0  0  0  0  0  0  0  0  0  0  0  0
   -6.6680    8.8170   22.6390 C   0  0  0  0  0  0  0  0  0  0  0  0
   -5.8987    3.1266   19.9485 H   0  0  0  0  0  0  0  0  0  0  0  0
   -3.2676    3.5399   18.5282 H   0  0  0  0  0  0  0  0  0  0  0  0
   -4.4058   -5.0044   17.8743 H   0  0  0  0  0  0  0  0  0  0  0  0
   -5.8138    5.1358   18.4021 H   0  0  0  0  0  0  0  0  0  0  0  0
   -5.0252    4.1557   17.0755 H   0  0  0  0  0  0  0  0  0  0  0  0
   -4.8499   -2.4310   18.4387 H   0  0  0  0  0  0  0  0  0  0  0  0
   -3.8790   -2.5192   16.9258 H   0  0  0  0  0  0  0  0  0  0  0  0
   -5.8434   -3.3877   17.8371 H   0  0  0  0  0  0  0  0  0  0  0  0
   -3.5242    5.6414   16.7750 H   0  0  0  0  0  0  0  0  0  0  0  0
   -3.7019    6.3331   18.3787 H   0  0  0  0  0  0  0  0  0  0  0  0
   -4.7991   -4.2337   19.9927 H   0  0  0  0  0  0  0  0  0  0  0  0
   -2.9829   -4.5005   19.9597 H   0  0  0  0  0  0  0  0  0  0  0  0
   -4.2010    2.3655   21.4223 H   0  0  0  0  0  0  0  0  0  0  0  0
   -3.2555    1.6628   20.0896 H   0  0  0  0  0  0  0  0  0  0  0  0
   -4.1721    7.9302   16.7267 H   0  0  0  0  0  0  0  0  0  0  0  0
   -5.3878    6.7972   16.0375 H   0  0  0  0  0  0  0  0  0  0  0  0
   -4.4877    1.3709   17.9202 H   0  0  0  0  0  0  0  0  0  0  0  0
   -5.5566   -0.6403   18.1345 H   0  0  0  0  0  0  0  0  0  0  0  0
   -2.6767   -1.9897   19.8429 H   0  0  0  0  0  0  0  0  0  0  0  0
   -7.5228   -2.4722   14.7617 H   0  0  0  0  0  0  0  0  0  0  0  0
   -3.2210    5.4672   19.8506 H   0  0  0  0  0  0  0  0  0  0  0  0
   -4.2993   -0.3423   22.3089 H   0  0  0  0  0  0  0  0  0  0  0  0
   -3.1239   -0.2420   20.9188 H   0  0  0  0  0  0  0  0  0  0  0  0
   -2.0331   -2.2009   17.3621 H   0  0  0  0  0  0  0  0  0  0  0  0
   -2.8666   -6.4014   17.0402 H   0  0  0  0  0  0  0  0  0  0  0  0
   -8.0032    1.7722   15.5319 H   0  0  0  0  0  0  0  0  0  0  0  0
   -5.4841   -2.2667   21.0848 H   0  0  0  0  0  0  0  0  0  0  0  0
   -4.4579    8.1657   19.3951 H   0  0  0  0  0  0  0  0  0  0  0  0
   -7.0241   -3.7420   15.6143 H   0  0  0  0  0  0  0  0  0  0  0  0
   -4.9923    8.3597   21.5627 H   0  0  0  0  0  0  0  0  0  0  0  0
   -7.6199    7.3456   16.6091 H   0  0  0  0  0  0  0  0  0  0  0  0
    0.1632   -2.5110   16.2580 H   0  0  0  0  0  0  0  0  0  0  0  0
   -0.7150   -6.7245   15.7976 H   0  0  0  0  0  0  0  0  0  0  0  0
   -8.5040    9.0198   20.4736 H   0  0  0  0  0  0  0  0  0  0  0  0
   -8.3301   -0.5047   12.9523 H   0  0  0  0  0  0  0  0  0  0  0  0
   -9.6952   -0.8785   14.0330 H   0  0  0  0  0  0  0  0  0  0  0  0
   -9.1766    0.8097   13.8048 H   0  0  0  0  0  0  0  0  0  0  0  0
   -9.2664    8.1021   18.3045 H   0  0  0  0  0  0  0  0  0  0  0  0
    0.7927   -4.7732   15.4336 H   0  0  0  0  0  0  0  0  0  0  0  0
   -6.0897   11.1603   21.2297 H   0  0  0  0  0  0  0  0  0  0  0  0
   -4.6321   10.6609   22.1226 H   0  0  0  0  0  0  0  0  0  0  0  0
   -4.6800   10.5231   20.3478 H   0  0  0  0  0  0  0  0  0  0  0  0
   -6.0591    9.0015   23.5241 H   0  0  0  0  0  0  0  0  0  0  0  0
   -7.5167    9.5009   22.6312 H   0  0  0  0  0  0  0  0  0  0  0  0
   -7.0287    7.7885   22.6525 H   0  0  0  0  0  0  0  0  0  0  0  0
  1  9  1  0  0  0  0
  1 62  1  0  0  0  0
  2 14  1  0  0  0  0
  2 24  1  0  0  0  0
  3 12  1  0  0  0  0
  3 70  1  0  0  0  0
  4 21  2  0  0  0  0
  5 10  1  0  0  0  0
  5 12  1  0  0  0  0
  5 47  1  0  0  0  0
  5 48  1  0  0  0  0
  6 11  1  0  0  0  0
  6 15  1  0  0  0  0
  6 50  1  0  0  0  0
  6 51  1  0  0  0  0
  7  8  1  0  0  0  0
  7 21  1  0  0  0  0
  7 58  1  0  0  0  0
  8  9  1  0  0  0  0
  8 14  1  0  0  0  0
  8 42  1  0  0  0  0
  9 11  1  0  0  0  0
  9 43  1  0  0  0  0
 10 13  1  0  0  0  0
 10 16  1  0  0  0  0
 10 44  1  0  0  0  0
 11 45  1  0  0  0  0
 11 46  1  0  0  0  0
 12 17  1  0  0  0  0
 12 49  1  0  0  0  0
 13 22  1  0  0  0  0
 13 52  1  0  0  0  0
 13 53  1  0  0  0  0
 14 54  1  0  0  0  0
 14 55  1  0  0  0  0
 15 19  1  0  0  0  0
 15 56  1  0  0  0  0
 15 57  1  0  0  0  0
 16 26  2  0  0  0  0
 16 27  1  0  0  0  0
 17 20  1  0  0  0  0
 17 23  2  0  0  0  0
 18 20  2  0  0  0  0
 18 21  1  0  0  0  0
 18 28  1  0  0  0  0
 19 30  2  0  0  0  0
 19 33  1  0  0  0  0
 20 59  1  0  0  0  0
 22 29  2  0  0  0  0
 22 60  1  0  0  0  0
 23 25  1  0  0  0  0
 23 61  1  0  0  0  0
 24 29  1  0  0  0  0
 24 63  1  0  0  0  0
 24 64  1  0  0  0  0
 25 28  2  0  0  0  0
 25 37  1  0  0  0  0
 26 34  1  0  0  0  0
 26 65  1  0  0  0  0
 27 35  2  0  0  0  0
 27 66  1  0  0  0  0
 28 67  1  0  0  0  0
 29 68  1  0  0  0  0
 30 31  1  0  0  0  0
 30 69  1  0  0  0  0
 31 32  1  0  0  0  0
 31 36  2  0  0  0  0
 32 40  1  0  0  0  0
 32 41  1  0  0  0  0
 32 71  1  0  0  0  0
 33 38  2  0  0  0  0
 33 72  1  0  0  0  0
 34 39  2  0  0  0  0
 34 73  1  0  0  0  0
 35 39  1  0  0  0  0
 35 74  1  0  0  0  0
 36 38  1  0  0  0  0
 36 75  1  0  0  0  0
 37 76  1  0  0  0  0
 37 77  1  0  0  0  0
 37 78  1  0  0  0  0
 38 79  1  0  0  0  0
 39 80  1  0  0  0  0
 40 81  1  0  0  0  0
 40 82  1  0  0  0  0
 40 83  1  0  0  0  0
 41 84  1  0  0  0  0
 41 85  1  0  0  0  0
 41 86  1  0  0  0  0
M  CHG  2   5   1   6   1
M  END
> <PUBCHEM_COMPOUND_ID_TYPE>
0

> <PUBCHEM_TOTAL_CHARGE>
2

> <PUBCHEM_SUBSTANCE_ID>
170484864

> <PUBCHEM_SUBSTANCE_VERSION>
1

> <PUBCHEM_EXT_DATASOURCE_NAME>
Shanghai Institute of Organic Chemistry

> <PUBCHEM_EXT_DATASOURCE_REGID>
4dpi

> <PUBCHEM_SUBSTANCE_COMMENT>
PDB code 4dpi, binding affinity data from PDBbind-CN database: IC50=78nM

> <PUBCHEM_SUBSTANCE_SYNONYM>
4dpi

> <PUBCHEM_XREF_EXT_ID>
4dpi

> <PUBCHEM_EXT_DATASOURCE_URL>
http://www.sioc-ccbg.ac.cn/

> <PUBCHEM_EXT_SUBSTANCE_URL>
http://www.pdbbind-cn.org/quickpdb.asp?quickpdb=4dpi

> <PUBCHEM_CID_ASSOCIATIONS>
72200877  1
72200878  2

> <PUBCHEM_CONFORMER_ID>
0A29648000010001

> <PUBCHEM_COORDINATE_TYPE>
2
3
4

$$$$
170484863
  -OEChem-11262106393D

 91 94  0     1  0  0  0  0  0999 V2000
    7.3040   -1.1830  -11.7790 S   0  0  0  0  0  0  0  0  0  0  0  0
    3.5880    4.4510  -19.9130 O   0  0  0  0  0  0  0  0  0  0  0  0
    4.8280    0.3110  -20.5180 O   0  0  0  0  0  0  0  0  0  0  0  0
    7.2760    2.3960  -17.5970 O   0  0  0  0  0  0  0  0  0  0  0  0
    4.5210   -3.6290  -15.5340 O   0  0  0  0  0  0  0  0  0  0  0  0
    7.5780   -0.4430  -10.6280 O   0  0  0  0  0  0  0  0  0  0  0  0
    5.9760   -1.6610  -11.7930 O   0  0  0  0  0  0  0  0  0  0  0  0
    3.9380    5.6950  -17.4350 N   0  3  0  0  0  0  0  0  0  0  0  0
    5.2450    1.5860  -18.1650 N   0  0  0  0  0  0  0  0  0  0  0  0
    5.5020   -3.5510  -17.5570 N   0  0  0  0  0  0  0  0  0  0  0  0
    7.5460   -0.1170  -13.0160 N   0  0  2  0  0  0  0  0  0  0  0  0
    3.9740    3.6200  -18.7920 C   0  0  1  0  0  0  0  0  0  0  0  0
    4.8980    2.4830  -19.2910 C   0  0  2  0  0  0  0  0  0  0  0  0
    4.6910    4.5020  -17.7770 C   0  0  0  0  0  0  0  0  0  0  0  0
    4.1810    1.6140  -20.3580 C   0  0  0  0  0  0  0  0  0  0  0  0
    4.6560    6.8050  -16.8220 C   0  0  0  0  0  0  0  0  0  0  0  0
    5.7220    7.3850  -17.7290 C   0  0  0  0  0  0  0  0  0  0  0  0
    6.3730    1.5850  -17.4780 C   0  0  0  0  0  0  0  0  0  0  0  0
    5.3590    7.9170  -18.9450 C   0  0  0  0  0  0  0  0  0  0  0  0
    6.2920    8.4520  -19.8100 C   0  0  0  0  0  0  0  0  0  0  0  0
    5.7980    8.9570  -21.1210 C   0  0  0  0  0  0  0  0  0  0  0  0
    6.4310    0.4680  -16.4850 C   0  0  0  0  0  0  0  0  0  0  0  0
    7.0720    7.3800  -17.3280 C   0  0  0  0  0  0  0  0  0  0  0  0
    4.8420   -4.7240  -18.1370 C   0  0  1  0  0  0  0  0  0  0  0  0
    3.9460   -0.7780  -20.9130 C   0  0  0  0  0  0  0  0  0  0  0  0
    7.6410    8.4400  -19.4490 C   0  0  0  0  0  0  0  0  0  0  0  0
    4.7130   -4.3800  -19.6330 C   0  0  0  0  0  0  0  0  0  0  0  0
    8.0050    7.8980  -18.2150 C   0  0  0  0  0  0  0  0  0  0  0  0
    5.9280   -0.7750  -16.8360 C   0  0  0  0  0  0  0  0  0  0  0  0
    6.9870    0.6680  -15.2270 C   0  0  0  0  0  0  0  0  0  0  0  0
    5.9540   -1.8230  -15.9310 C   0  0  0  0  0  0  0  0  0  0  0  0
    6.9980   -0.4060  -14.3180 C   0  0  0  0  0  0  0  0  0  0  0  0
    4.5040   -2.1700  -20.5860 C   0  0  0  0  0  0  0  0  0  0  0  0
    5.0330   10.2400  -20.9540 C   0  0  0  0  0  0  0  0  0  0  0  0
    6.9320    9.1060  -22.1170 C   0  0  0  0  0  0  0  0  0  0  0  0
    6.4810   -1.6510  -14.6830 C   0  0  0  0  0  0  0  0  0  0  0  0
    5.5670   -5.9990  -17.9190 C   0  0  0  0  0  0  0  0  0  0  0  0
    3.9550   -3.0700  -19.7950 C   0  0  0  0  0  0  0  0  0  0  0  0
    5.3080   -3.1100  -16.3360 C   0  0  0  0  0  0  0  0  0  0  0  0
    4.8030   -7.0630  -17.4030 C   0  0  0  0  0  0  0  0  0  0  0  0
    6.9250   -6.1660  -18.1940 C   0  0  0  0  0  0  0  0  0  0  0  0
    8.8770    0.5160  -13.0700 C   0  0  0  0  0  0  0  0  0  0  0  0
    8.4810   -2.4350  -11.8480 C   0  0  0  0  0  0  0  0  0  0  0  0
    5.3740   -8.3040  -17.1460 C   0  0  0  0  0  0  0  0  0  0  0  0
    7.4990   -7.3960  -17.9330 C   0  0  0  0  0  0  0  0  0  0  0  0
    6.7320   -8.4550  -17.4050 C   0  0  0  0  0  0  0  0  0  0  0  0
    3.0785    3.1809  -18.3280 H   0  0  0  0  0  0  0  0  0  0  0  0
    5.8118    2.9204  -19.7195 H   0  0  0  0  0  0  0  0  0  0  0  0
    5.6597    4.8073  -18.1993 H   0  0  0  0  0  0  0  0  0  0  0  0
    4.8584    3.9176  -16.8602 H   0  0  0  0  0  0  0  0  0  0  0  0
    3.2115    5.4174  -16.7937 H   0  0  0  0  0  0  0  0  0  0  0  0
    3.5215    6.0406  -18.2854 H   0  0  0  0  0  0  0  0  0  0  0  0
    4.2022    2.1434  -21.3220 H   0  0  0  0  0  0  0  0  0  0  0  0
    3.1371    1.4581  -20.0482 H   0  0  0  0  0  0  0  0  0  0  0  0
    5.1360    6.4468  -15.8994 H   0  0  0  0  0  0  0  0  0  0  0  0
    3.9342    7.5977  -16.5759 H   0  0  0  0  0  0  0  0  0  0  0  0
    4.5555    0.9129  -17.8977 H   0  0  0  0  0  0  0  0  0  0  0  0
    3.1382    3.9198  -20.5595 H   0  0  0  0  0  0  0  0  0  0  0  0
    4.3134    7.9159  -19.2309 H   0  0  0  0  0  0  0  0  0  0  0  0
    5.1015    8.2072  -21.5242 H   0  0  0  0  0  0  0  0  0  0  0  0
    7.3709    6.9865  -16.3632 H   0  0  0  0  0  0  0  0  0  0  0  0
    3.8404   -4.8305  -17.6948 H   0  0  0  0  0  0  0  0  0  0  0  0
    3.7812   -0.7157  -21.9988 H   0  0  0  0  0  0  0  0  0  0  0  0
    2.9866   -0.6561  -20.3889 H   0  0  0  0  0  0  0  0  0  0  0  0
    5.7162   -4.2787  -20.0726 H   0  0  0  0  0  0  0  0  0  0  0  0
    4.1668   -5.1845  -20.1473 H   0  0  0  0  0  0  0  0  0  0  0  0
    8.3933    8.8450  -20.1161 H   0  0  0  0  0  0  0  0  0  0  0  0
    9.0534    7.8812  -17.9401 H   0  0  0  0  0  0  0  0  0  0  0  0
    5.5116   -0.9278  -17.8251 H   0  0  0  0  0  0  0  0  0  0  0  0
    7.4031    1.6305  -14.9521 H   0  0  0  0  0  0  0  0  0  0  0  0
    6.1473   -3.0500  -18.1336 H   0  0  0  0  0  0  0  0  0  0  0  0
    5.4487   -2.4413  -21.0548 H   0  0  0  0  0  0  0  0  0  0  0  0
    4.6816   10.5879  -21.9366 H   0  0  0  0  0  0  0  0  0  0  0  0
    5.6886   11.0025  -20.5081 H   0  0  0  0  0  0  0  0  0  0  0  0
    4.1689   10.0686  -20.2952 H   0  0  0  0  0  0  0  0  0  0  0  0
    7.4657    8.1487  -22.2108 H   0  0  0  0  0  0  0  0  0  0  0  0
    7.6288    9.8814  -21.7660 H   0  0  0  0  0  0  0  0  0  0  0  0
    6.5240    9.3958  -23.0965 H   0  0  0  0  0  0  0  0  0  0  0  0
    6.4980   -2.4758  -13.9799 H   0  0  0  0  0  0  0  0  0  0  0  0
    3.0104   -2.8864  -19.2851 H   0  0  0  0  0  0  0  0  0  0  0  0
    3.7486   -6.9115  -17.2021 H   0  0  0  0  0  0  0  0  0  0  0  0
    7.5142   -5.3525  -18.6016 H   0  0  0  0  0  0  0  0  0  0  0  0
    8.9223    1.2017  -13.9289 H   0  0  0  0  0  0  0  0  0  0  0  0
    9.6482   -0.2606  -13.1798 H   0  0  0  0  0  0  0  0  0  0  0  0
    9.0532    1.0791  -12.1417 H   0  0  0  0  0  0  0  0  0  0  0  0
    9.4881   -1.9927  -11.8335 H   0  0  0  0  0  0  0  0  0  0  0  0
    8.3477   -3.0129  -12.7744 H   0  0  0  0  0  0  0  0  0  0  0  0
    8.3602   -3.1001  -10.9802 H   0  0  0  0  0  0  0  0  0  0  0  0
    4.7819   -9.1248  -16.7576 H   0  0  0  0  0  0  0  0  0  0  0  0
    8.5527   -7.5486  -18.1369 H   0  0  0  0  0  0  0  0  0  0  0  0
    7.2102   -9.4053  -17.1969 H   0  0  0  0  0  0  0  0  0  0  0  0
  1  6  2  0  0  0  0
  1  7  2  0  0  0  0
  1 11  1  0  0  0  0
  1 43  1  0  0  0  0
  2 12  1  0  0  0  0
  2 58  1  0  0  0  0
  3 15  1  0  0  0  0
  3 25  1  0  0  0  0
  4 18  2  0  0  0  0
  5 39  2  0  0  0  0
  8 14  1  0  0  0  0
  8 16  1  0  0  0  0
  8 51  1  0  0  0  0
  8 52  1  0  0  0  0
  9 13  1  0  0  0  0
  9 18  1  0  0  0  0
  9 57  1  0  0  0  0
 10 24  1  0  0  0  0
 10 39  1  0  0  0  0
 10 71  1  0  0  0  0
 11 32  1  0  0  0  0
 11 42  1  0  0  0  0
 12 13  1  0  0  0  0
 12 14  1  0  0  0  0
 12 47  1  0  0  0  0
 13 15  1  0  0  0  0
 13 48  1  0  0  0  0
 14 49  1  0  0  0  0
 14 50  1  0  0  0  0
 15 53  1  0  0  0  0
 15 54  1  0  0  0  0
 16 17  1  0  0  0  0
 16 55  1  0  0  0  0
 16 56  1  0  0  0  0
 17 19  1  0  0  0  0
 17 23  2  0  0  0  0
 18 22  1  0  0  0  0
 19 20  2  0  0  0  0
 19 59  1  0  0  0  0
 20 21  1  0  0  0  0
 20 26  1  0  0  0  0
 21 34  1  0  0  0  0
 21 35  1  0  0  0  0
 21 60  1  0  0  0  0
 22 29  2  0  0  0  0
 22 30  1  0  0  0  0
 23 28  1  0  0  0  0
 23 61  1  0  0  0  0
 24 27  1  0  0  0  0
 24 37  1  0  0  0  0
 24 62  1  0  0  0  0
 25 33  1  0  0  0  0
 25 63  1  0  0  0  0
 25 64  1  0  0  0  0
 26 28  2  0  0  0  0
 26 67  1  0  0  0  0
 27 38  1  0  0  0  0
 27 65  1  0  0  0  0
 27 66  1  0  0  0  0
 28 68  1  0  0  0  0
 29 31  1  0  0  0  0
 29 69  1  0  0  0  0
 30 32  2  0  0  0  0
 30 70  1  0  0  0  0
 31 36  2  0  0  0  0
 31 39  1  0  0  0  0
 32 36  1  0  0  0  0
 33 38  2  0  0  0  0
 33 72  1  0  0  0  0
 34 73  1  0  0  0  0
 34 74  1  0  0  0  0
 34 75  1  0  0  0  0
 35 76  1  0  0  0  0
 35 77  1  0  0  0  0
 35 78  1  0  0  0  0
 36 79  1  0  0  0  0
 37 40  2  0  0  0  0
 37 41  1  0  0  0  0
 38 80  1  0  0  0  0
 40 44  1  0  0  0  0
 40 81  1  0  0  0  0
 41 45  2  0  0  0  0
 41 82  1  0  0  0  0
 42 83  1  0  0  0  0
 42 84  1  0  0  0  0
 42 85  1  0  0  0  0
 43 86  1  0  0  0  0
 43 87  1  0  0  0  0
 43 88  1  0  0  0  0
 44 46  2  0  0  0  0
 44 89  1  0  0  0  0
 45 46  1  0  0  0  0
 45 90  1  0  0  0  0
 46 91  1  0  0  0  0
M  CHG  1   8   1
M  END
> <PUBCHEM_COMPOUND_ID_TYPE>
0

> <PUBCHEM_TOTAL_CHARGE>
1

> <PUBCHEM_SUBSTANCE_ID>
170484863

> <PUBCHEM_SUBSTANCE_VERSION>
1

> <PUBCHEM_EXT_DATASOURCE_NAME>
Shanghai Institute of Organic Chemistry

> <PUBCHEM_EXT_DATASOURCE_REGID>
4dpf

> <PUBCHEM_SUBSTANCE_COMMENT>
PDB code 4dpf, binding affinity data from PDBbind-CN database: IC50=400nM

> <PUBCHEM_SUBSTANCE_SYNONYM>
4dpf

> <PUBCHEM_XREF_EXT_ID>
4dpf

> <PUBCHEM_EXT_DATASOURCE_URL>
http://www.sioc-ccbg.ac.cn/

> <PUBCHEM_EXT_SUBSTANCE_URL>
http://www.pdbbind-cn.org/quickpdb.asp?quickpdb=4dpf

> <PUBCHEM_CID_ASSOCIATIONS>
72200876  1
57345931  2

> <PUBCHEM_CONFORMER_ID>
0A29647F00010001

> <PUBCHEM_COORDINATE_TYPE>
2
3
4

$$$$
170484859
  -OEChem-11262106393D

 57 61  0     1  0  0  0  0  0999 V2000
   16.2550   31.2910    9.1040 F   0  0  0  0  0  0  0  0  0  0  0  0
    9.9130   25.9500   10.2350 O   0  0  0  0  0  0  0  0  0  0  0  0
   11.7940   24.5080   13.1850 O   0  0  0  0  0  0  0  0  0  0  0  0
    8.9110   24.2580   11.4170 N   0  0  0  0  0  0  0  0  0  0  0  0
   13.4720   25.9010   12.6200 N   0  0  0  0  0  0  0  0  0  0  0  0
    6.6740   23.0060    8.8500 N   0  0  0  0  0  0  0  0  0  0  0  0
   15.8310   25.8500    9.2130 N   0  0  0  0  0  0  0  0  0  0  0  0
    8.5870   23.3630   10.3150 C   0  0  0  0  0  0  0  0  0  0  0  0
    9.1120   21.9700   10.2530 C   0  0  0  0  0  0  0  0  0  0  0  0
    9.7870   23.1040    9.4020 C   0  0  0  0  0  0  0  0  0  0  0  0
    9.6960   26.2390   12.5930 C   0  0  1  0  0  0  0  0  0  0  0  0
   11.1370   26.7710   12.7470 C   0  0  1  0  0  0  0  0  0  0  0  0
    8.6790   27.3930   12.5380 C   0  0  0  0  0  0  0  0  0  0  0  0
   11.2540   27.6700   13.9860 C   0  0  0  0  0  0  0  0  0  0  0  0
    9.5230   25.4880   11.2960 C   0  0  0  0  0  0  0  0  0  0  0  0
    8.7350   28.2060   13.8300 C   0  0  0  0  0  0  0  0  0  0  0  0
   10.1600   28.7560   14.0510 C   0  0  0  0  0  0  0  0  0  0  0  0
    7.3000   23.8340    9.6250 C   0  0  0  0  0  0  0  0  0  0  0  0
   12.1400   25.6400   12.8690 C   0  0  0  0  0  0  0  0  0  0  0  0
   13.9710   27.2030   12.0970 C   0  0  0  0  0  0  0  0  0  0  0  0
   14.3950   24.7510   12.4480 C   0  0  0  0  0  0  0  0  0  0  0  0
   14.7870   26.9750   10.8540 C   0  0  0  0  0  0  0  0  0  0  0  0
   14.5860   24.4600   10.9490 C   0  0  0  0  0  0  0  0  0  0  0  0
   15.0670   25.7340   10.3240 C   0  0  0  0  0  0  0  0  0  0  0  0
   15.3950   27.8880   10.0430 C   0  0  0  0  0  0  0  0  0  0  0  0
   16.0150   27.1720    9.0480 C   0  0  0  0  0  0  0  0  0  0  0  0
   15.4390   29.2770   10.0940 C   0  0  0  0  0  0  0  0  0  0  0  0
   16.7290   27.8270    8.0500 C   0  0  0  0  0  0  0  0  0  0  0  0
   16.1510   29.9490    9.1000 C   0  0  0  0  0  0  0  0  0  0  0  0
   16.7830   29.2230    8.0950 C   0  0  0  0  0  0  0  0  0  0  0  0
    8.7321   20.9580   10.1128 H   0  0  0  0  0  0  0  0  0  0  0  0
    9.4074   21.1758   10.9386 H   0  0  0  0  0  0  0  0  0  0  0  0
   10.7736   23.5101    9.1786 H   0  0  0  0  0  0  0  0  0  0  0  0
   10.1239   23.3006    8.3842 H   0  0  0  0  0  0  0  0  0  0  0  0
    9.5250   25.5932   13.4543 H   0  0  0  0  0  0  0  0  0  0  0  0
   11.3604   27.3466   11.8487 H   0  0  0  0  0  0  0  0  0  0  0  0
    8.6646   23.9493   12.3574 H   0  0  0  0  0  0  0  0  0  0  0  0
    7.6771   26.9807   12.4185 H   0  0  0  0  0  0  0  0  0  0  0  0
    8.9208   28.0424   11.6966 H   0  0  0  0  0  0  0  0  0  0  0  0
   11.1448   27.0366   14.8664 H   0  0  0  0  0  0  0  0  0  0  0  0
   12.2191   28.1744   13.9394 H   0  0  0  0  0  0  0  0  0  0  0  0
    8.4662   27.5633   14.6683 H   0  0  0  0  0  0  0  0  0  0  0  0
    8.0374   29.0404   13.7575 H   0  0  0  0  0  0  0  0  0  0  0  0
   10.1916   29.1944   15.0485 H   0  0  0  0  0  0  0  0  0  0  0  0
   10.3620   29.4733   13.2555 H   0  0  0  0  0  0  0  0  0  0  0  0
    6.9207   24.8435    9.7835 H   0  0  0  0  0  0  0  0  0  0  0  0
   14.5936   27.6802   12.8538 H   0  0  0  0  0  0  0  0  0  0  0  0
   13.1224   27.8440   11.8580 H   0  0  0  0  0  0  0  0  0  0  0  0
   13.9730   23.8725   12.9360 H   0  0  0  0  0  0  0  0  0  0  0  0
   15.3594   24.9913   12.8955 H   0  0  0  0  0  0  0  0  0  0  0  0
   13.6516   24.1314   10.4939 H   0  0  0  0  0  0  0  0  0  0  0  0
   15.3057   23.6556   10.7970 H   0  0  0  0  0  0  0  0  0  0  0  0
    7.0388   22.0639    8.7095 H   0  0  0  0  0  0  0  0  0  0  0  0
   16.1902   25.0966    8.6267 H   0  0  0  0  0  0  0  0  0  0  0  0
   14.9317   29.8251   10.8879 H   0  0  0  0  0  0  0  0  0  0  0  0
   17.2301   27.2697    7.2585 H   0  0  0  0  0  0  0  0  0  0  0  0
   17.3351   29.7575    7.3219 H   0  0  0  0  0  0  0  0  0  0  0  0
  1 29  1  0  0  0  0
  2 15  2  0  0  0  0
  3 19  2  0  0  0  0
  4  8  1  0  0  0  0
  4 15  1  0  0  0  0
  4 37  1  0  0  0  0
  5 19  1  0  0  0  0
  5 20  1  0  0  0  0
  5 21  1  0  0  0  0
  6 18  2  0  0  0  0
  6 53  1  0  0  0  0
  7 24  1  0  0  0  0
  7 26  1  0  0  0  0
  7 54  1  0  0  0  0
  8  9  1  0  0  0  0
  8 10  1  0  0  0  0
  8 18  1  0  0  0  0
  9 10  1  0  0  0  0
  9 31  1  0  0  0  0
  9 32  1  0  0  0  0
 10 33  1  0  0  0  0
 10 34  1  0  0  0  0
 11 12  1  0  0  0  0
 11 13  1  0  0  0  0
 11 15  1  0  0  0  0
 11 35  1  0  0  0  0
 12 14  1  0  0  0  0
 12 19  1  0  0  0  0
 12 36  1  0  0  0  0
 13 16  1  0  0  0  0
 13 38  1  0  0  0  0
 13 39  1  0  0  0  0
 14 17  1  0  0  0  0
 14 40  1  0  0  0  0
 14 41  1  0  0  0  0
 16 17  1  0  0  0  0
 16 42  1  0  0  0  0
 16 43  1  0  0  0  0
 17 44  1  0  0  0  0
 17 45  1  0  0  0  0
 18 46  1  0  0  0  0
 20 22  1  0  0  0  0
 20 47  1  0  0  0  0
 20 48  1  0  0  0  0
 21 23  1  0  0  0  0
 21 49  1  0  0  0  0
 21 50  1  0  0  0  0
 22 24  2  0  0  0  0
 22 25  1  0  0  0  0
 23 24  1  0  0  0  0
 23 51  1  0  0  0  0
 23 52  1  0  0  0  0
 25 26  2  0  0  0  0
 25 27  1  0  0  0  0
 26 28  1  0  0  0  0
 27 29  2  0  0  0  0
 27 55  1  0  0  0  0
 28 30  2  0  0  0  0
 28 56  1  0  0  0  0
 29 30  1  0  0  0  0
 30 57  1  0  0  0  0
M  END
> <PUBCHEM_COMPOUND_ID_TYPE>
0

> <PUBCHEM_TOTAL_CHARGE>
0

> <PUBCHEM_SUBSTANCE_ID>
170484859

> <PUBCHEM_SUBSTANCE_VERSION>
1

> <PUBCHEM_EXT_DATASOURCE_NAME>
Shanghai Institute of Organic Chemistry

> <PUBCHEM_EXT_DATASOURCE_REGID>
4dmy

> <PUBCHEM_SUBSTANCE_COMMENT>
PDB code 4dmy, binding affinity data from PDBbind-CN database: IC50=0.001uM

> <PUBCHEM_SUBSTANCE_SYNONYM>
4dmy

> <PUBCHEM_XREF_EXT_ID>
4dmy

> <PUBCHEM_EXT_DATASOURCE_URL>
http://www.sioc-ccbg.ac.cn/

> <PUBCHEM_EXT_SUBSTANCE_URL>
http://www.pdbbind-cn.org/quickpdb.asp?quickpdb=4dmy

> <PUBCHEM_CID_ASSOCIATIONS>
72200874  1

> <PUBCHEM_CONFORMER_ID>
0A29647B00010001

> <PUBCHEM_COORDINATE_TYPE>
2
3
4

$$$$
170484851
  -OEChem-11262106393D

 55 57  0     1  0  0  0  0  0999 V2000
   44.6620   67.9600   42.2360 S   0  0  0  0  0  0  0  0  0  0  0  0
   36.2290   65.9220   39.6680 F   0  0  0  0  0  0  0  0  0  0  0  0
   37.4060   67.6240   39.1410 F   0  0  0  0  0  0  0  0  0  0  0  0
   37.0090   67.2440   41.2140 F   0  0  0  0  0  0  0  0  0  0  0  0
   38.2230   64.8110   41.1770 O   0  0  0  0  0  0  0  0  0  0  0  0
   39.0870   62.0010   40.4670 O   0  0  0  0  0  0  0  0  0  0  0  0
   45.6370   68.9900   42.4930 O   0  0  0  0  0  0  0  0  0  0  0  0
   44.9010   67.0860   41.0990 O   0  0  0  0  0  0  0  0  0  0  0  0
   39.9370   64.1040   38.7280 N   0  0  0  0  0  0  0  0  0  0  0  0
   43.1560   68.8610   41.8240 N   0  0  1  0  0  0  0  0  0  0  0  0
   38.5660   65.7660   40.1740 C   0  0  2  0  0  0  0  0  0  0  0  0
   38.9420   65.0480   38.8500 C   0  0  0  0  0  0  0  0  0  0  0  0
   39.7500   66.6120   40.6160 C   0  0  0  0  0  0  0  0  0  0  0  0
   37.2750   66.6600   40.0470 C   0  0  0  0  0  0  0  0  0  0  0  0
   40.8640   63.5380   39.7500 C   0  0  0  0  0  0  0  0  0  0  0  0
   38.3660   65.2280   37.5690 C   0  0  0  0  0  0  0  0  0  0  0  0
   39.9770   63.7130   37.4250 C   0  0  0  0  0  0  0  0  0  0  0  0
   40.3160   66.4070   41.8860 C   0  0  0  0  0  0  0  0  0  0  0  0
   40.3300   67.6170   39.7780 C   0  0  0  0  0  0  0  0  0  0  0  0
   41.9980   68.1270   41.4680 C   0  0  0  0  0  0  0  0  0  0  0  0
   39.0160   64.3930   36.6890 C   0  0  0  0  0  0  0  0  0  0  0  0
   41.4160   67.1440   42.3030 C   0  0  0  0  0  0  0  0  0  0  0  0
   41.4400   68.3570   40.1960 C   0  0  0  0  0  0  0  0  0  0  0  0
   40.4650   62.1210   40.1620 C   0  0  0  0  0  0  0  0  0  0  0  0
   42.7030   69.8220   42.8590 C   0  0  0  0  0  0  0  0  0  0  0  0
   44.5620   66.9670   43.7150 C   0  0  0  0  0  0  0  0  0  0  0  0
   44.9920   67.5230   44.9450 C   0  0  0  0  0  0  0  0  0  0  0  0
   44.0600   65.6450   43.6590 C   0  0  0  0  0  0  0  0  0  0  0  0
   38.8170   60.8850   41.2930 C   0  0  0  0  0  0  0  0  0  0  0  0
   44.9180   66.7550   46.1280 C   0  0  0  0  0  0  0  0  0  0  0  0
   43.9850   64.8780   44.8450 C   0  0  0  0  0  0  0  0  0  0  0  0
   44.4130   65.4330   46.0800 C   0  0  0  0  0  0  0  0  0  0  0  0
   40.8258   64.1739   40.6345 H   0  0  0  0  0  0  0  0  0  0  0  0
   41.8643   63.4988   39.3187 H   0  0  0  0  0  0  0  0  0  0  0  0
   37.5508   65.9085   37.3230 H   0  0  0  0  0  0  0  0  0  0  0  0
   40.6649   62.9721   37.0176 H   0  0  0  0  0  0  0  0  0  0  0  0
   39.8856   65.6594   42.5523 H   0  0  0  0  0  0  0  0  0  0  0  0
   39.8982   67.8089   38.7957 H   0  0  0  0  0  0  0  0  0  0  0  0
   38.8156   64.2864   35.6229 H   0  0  0  0  0  0  0  0  0  0  0  0
   38.9725   64.2325   41.3361 H   0  0  0  0  0  0  0  0  0  0  0  0
   41.8389   66.9623   43.2911 H   0  0  0  0  0  0  0  0  0  0  0  0
   41.8727   69.1108   39.5382 H   0  0  0  0  0  0  0  0  0  0  0  0
   41.0275   61.8654   41.0600 H   0  0  0  0  0  0  0  0  0  0  0  0
   40.6784   61.4586   39.3231 H   0  0  0  0  0  0  0  0  0  0  0  0
   42.5056   69.2872   43.7880 H   0  0  0  0  0  0  0  0  0  0  0  0
   43.4803   70.5677   43.0257 H   0  0  0  0  0  0  0  0  0  0  0  0
   41.7913   70.3148   42.5212 H   0  0  0  0  0  0  0  0  0  0  0  0
   45.3792   68.5414   44.9783 H   0  0  0  0  0  0  0  0  0  0  0  0
   43.7337   65.2212   42.7093 H   0  0  0  0  0  0  0  0  0  0  0  0
   39.1322   59.9737   40.7848 H   0  0  0  0  0  0  0  0  0  0  0  0
   39.3639   60.9875   42.2303 H   0  0  0  0  0  0  0  0  0  0  0  0
   37.7476   60.8367   41.4982 H   0  0  0  0  0  0  0  0  0  0  0  0
   45.2490   67.1791   47.0760 H   0  0  0  0  0  0  0  0  0  0  0  0
   43.5981   63.8595   44.8110 H   0  0  0  0  0  0  0  0  0  0  0  0
   44.3527   64.8403   46.9927 H   0  0  0  0  0  0  0  0  0  0  0  0
  1  7  2  0  0  0  0
  1  8  2  0  0  0  0
  1 10  1  0  0  0  0
  1 26  1  0  0  0  0
  2 14  1  0  0  0  0
  3 14  1  0  0  0  0
  4 14  1  0  0  0  0
  5 11  1  0  0  0  0
  5 40  1  0  0  0  0
  6 24  1  0  0  0  0
  6 29  1  0  0  0  0
  9 12  1  0  0  0  0
  9 15  1  0  0  0  0
  9 17  1  0  0  0  0
 10 20  1  0  0  0  0
 10 25  1  0  0  0  0
 11 12  1  0  0  0  0
 11 13  1  0  0  0  0
 11 14  1  0  0  0  0
 12 16  2  0  0  0  0
 13 18  2  0  0  0  0
 13 19  1  0  0  0  0
 15 24  1  0  0  0  0
 15 33  1  0  0  0  0
 15 34  1  0  0  0  0
 16 21  1  0  0  0  0
 16 35  1  0  0  0  0
 17 21  2  0  0  0  0
 17 36  1  0  0  0  0
 18 22  1  0  0  0  0
 18 37  1  0  0  0  0
 19 23  2  0  0  0  0
 19 38  1  0  0  0  0
 20 22  2  0  0  0  0
 20 23  1  0  0  0  0
 21 39  1  0  0  0  0
 22 41  1  0  0  0  0
 23 42  1  0  0  0  0
 24 43  1  0  0  0  0
 24 44  1  0  0  0  0
 25 45  1  0  0  0  0
 25 46  1  0  0  0  0
 25 47  1  0  0  0  0
 26 27  2  0  0  0  0
 26 28  1  0  0  0  0
 27 30  1  0  0  0  0
 27 48  1  0  0  0  0
 28 31  2  0  0  0  0
 28 49  1  0  0  0  0
 29 50  1  0  0  0  0
 29 51  1  0  0  0  0
 29 52  1  0  0  0  0
 30 32  2  0  0  0  0
 30 53  1  0  0  0  0
 31 32  1  0  0  0  0
 31 54  1  0  0  0  0
 32 55  1  0  0  0  0
M  END
> <PUBCHEM_COMPOUND_ID_TYPE>
0

> <PUBCHEM_TOTAL_CHARGE>
0

> <PUBCHEM_SUBSTANCE_ID>
170484851

> <PUBCHEM_SUBSTANCE_VERSION>
1

> <PUBCHEM_EXT_DATASOURCE_NAME>
Shanghai Institute of Organic Chemistry

> <PUBCHEM_EXT_DATASOURCE_REGID>
4dk8

> <PUBCHEM_SUBSTANCE_COMMENT>
PDB code 4dk8, binding affinity data from PDBbind-CN database: IC50=1.8uM

> <PUBCHEM_SUBSTANCE_SYNONYM>
4dk8

> <PUBCHEM_XREF_EXT_ID>
4dk8

> <PUBCHEM_EXT_DATASOURCE_URL>
http://www.sioc-ccbg.ac.cn/

> <PUBCHEM_EXT_SUBSTANCE_URL>
http://www.pdbbind-cn.org/quickpdb.asp?quickpdb=4dk8

> <PUBCHEM_CID_ASSOCIATIONS>
56844264  1

> <PUBCHEM_CONFORMER_ID>
0A29647300010001

> <PUBCHEM_COORDINATE_TYPE>
2
3
4

$$$$
170484850
  -OEChem-11262106393D

 40 41  0     1  0  0  0  0  0999 V2000
   36.9630   65.4040   40.0170 S   0  0  0  0  0  0  0  0  0  0  0  0
   45.2500   67.5470   41.4750 F   0  0  0  0  0  0  0  0  0  0  0  0
   43.8540   66.8780   39.9130 F   0  0  0  0  0  0  0  0  0  0  0  0
   43.6550   66.1270   41.9650 F   0  0  0  0  0  0  0  0  0  0  0  0
   44.4370   69.4030   43.2610 F   0  0  0  0  0  0  0  0  0  0  0  0
   42.8110   68.1670   43.9780 F   0  0  0  0  0  0  0  0  0  0  0  0
   42.3410   70.1610   43.1720 F   0  0  0  0  0  0  0  0  0  0  0  0
   43.4470   69.5230   40.6980 O   0  0  0  0  0  0  0  0  0  0  0  0
   35.6080   65.4530   39.5150 O   0  0  0  0  0  0  0  0  0  0  0  0
   37.1310   64.7550   41.2970 O   0  0  0  0  0  0  0  0  0  0  0  0
   37.4590   67.0790   40.2750 N   0  0  1  0  0  0  0  0  0  0  0  0
   42.9970   68.4480   41.5400 C   0  0  0  0  0  0  0  0  0  0  0  0
   41.5400   68.0850   41.2280 C   0  0  0  0  0  0  0  0  0  0  0  0
   38.8240   67.4450   40.5480 C   0  0  0  0  0  0  0  0  0  0  0  0
   43.9500   67.2380   41.2270 C   0  0  0  0  0  0  0  0  0  0  0  0
   43.1470   69.0520   43.0080 C   0  0  0  0  0  0  0  0  0  0  0  0
   40.9840   68.4550   39.9750 C   0  0  0  0  0  0  0  0  0  0  0  0
   40.6920   67.3820   42.1320 C   0  0  0  0  0  0  0  0  0  0  0  0
   39.6690   68.1470   39.6380 C   0  0  0  0  0  0  0  0  0  0  0  0
   39.3670   67.0720   41.7960 C   0  0  0  0  0  0  0  0  0  0  0  0
   38.0180   64.5890   38.8050 C   0  0  0  0  0  0  0  0  0  0  0  0
   36.9780   67.9490   39.1720 C   0  0  0  0  0  0  0  0  0  0  0  0
   37.6440   64.6020   37.4290 C   0  0  0  0  0  0  0  0  0  0  0  0
   39.2110   63.9300   39.2230 C   0  0  0  0  0  0  0  0  0  0  0  0
   38.4550   63.9600   36.4670 C   0  0  0  0  0  0  0  0  0  0  0  0
   40.0210   63.2870   38.2650 C   0  0  0  0  0  0  0  0  0  0  0  0
   39.6330   63.3100   36.8980 C   0  0  0  0  0  0  0  0  0  0  0  0
   41.6031   68.9944   39.2582 H   0  0  0  0  0  0  0  0  0  0  0  0
   41.0814   67.0793   43.1040 H   0  0  0  0  0  0  0  0  0  0  0  0
   39.2795   68.4465   38.6650 H   0  0  0  0  0  0  0  0  0  0  0  0
   38.7452   66.5334   42.5111 H   0  0  0  0  0  0  0  0  0  0  0  0
   37.3957   67.6004   38.2275 H   0  0  0  0  0  0  0  0  0  0  0  0
   35.8897   67.9078   39.1267 H   0  0  0  0  0  0  0  0  0  0  0  0
   37.2968   68.9752   39.3550 H   0  0  0  0  0  0  0  0  0  0  0  0
   42.8975   70.2960   40.8467 H   0  0  0  0  0  0  0  0  0  0  0  0
   36.7301   65.1086   37.1188 H   0  0  0  0  0  0  0  0  0  0  0  0
   39.4947   63.9233   40.2754 H   0  0  0  0  0  0  0  0  0  0  0  0
   38.1774   63.9660   35.4130 H   0  0  0  0  0  0  0  0  0  0  0  0
   40.9352   62.7776   38.5695 H   0  0  0  0  0  0  0  0  0  0  0  0
   40.2625   62.8117   36.1607 H   0  0  0  0  0  0  0  0  0  0  0  0
  1  9  2  0  0  0  0
  1 10  2  0  0  0  0
  1 11  1  0  0  0  0
  1 21  1  0  0  0  0
  2 15  1  0  0  0  0
  3 15  1  0  0  0  0
  4 15  1  0  0  0  0
  5 16  1  0  0  0  0
  6 16  1  0  0  0  0
  7 16  1  0  0  0  0
  8 12  1  0  0  0  0
  8 35  1  0  0  0  0
 11 14  1  0  0  0  0
 11 22  1  0  0  0  0
 12 13  1  0  0  0  0
 12 15  1  0  0  0  0
 12 16  1  0  0  0  0
 13 17  2  0  0  0  0
 13 18  1  0  0  0  0
 14 19  2  0  0  0  0
 14 20  1  0  0  0  0
 17 19  1  0  0  0  0
 17 28  1  0  0  0  0
 18 20  2  0  0  0  0
 18 29  1  0  0  0  0
 19 30  1  0  0  0  0
 20 31  1  0  0  0  0
 21 23  2  0  0  0  0
 21 24  1  0  0  0  0
 22 32  1  0  0  0  0
 22 33  1  0  0  0  0
 22 34  1  0  0  0  0
 23 25  1  0  0  0  0
 23 36  1  0  0  0  0
 24 26  2  0  0  0  0
 24 37  1  0  0  0  0
 25 27  2  0  0  0  0
 25 38  1  0  0  0  0
 26 27  1  0  0  0  0
 26 39  1  0  0  0  0
 27 40  1  0  0  0  0
M  END
> <PUBCHEM_COMPOUND_ID_TYPE>
0

> <PUBCHEM_TOTAL_CHARGE>
0

> <PUBCHEM_SUBSTANCE_ID>
170484850

> <PUBCHEM_SUBSTANCE_VERSION>
1

> <PUBCHEM_EXT_DATASOURCE_NAME>
Shanghai Institute of Organic Chemistry

> <PUBCHEM_EXT_DATASOURCE_REGID>
4dk7

> <PUBCHEM_SUBSTANCE_COMMENT>
PDB code 4dk7, binding affinity data from PDBbind-CN database: IC50=0.02uM

> <PUBCHEM_SUBSTANCE_SYNONYM>
4dk7

> <PUBCHEM_XREF_EXT_ID>
4dk7

> <PUBCHEM_EXT_DATASOURCE_URL>
http://www.sioc-ccbg.ac.cn/

> <PUBCHEM_EXT_SUBSTANCE_URL>
http://www.pdbbind-cn.org/quickpdb.asp?quickpdb=4dk7

> <PUBCHEM_CID_ASSOCIATIONS>
10112384  1

> <PUBCHEM_CONFORMER_ID>
0A29647200010001

> <PUBCHEM_COORDINATE_TYPE>
2
3
4

$$$$
170484836
  -OEChem-11262106393D

 87 91  0     1  0  0  0  0  0999 V2000
   31.1360    8.7330   19.9090 S   0  0  0  0  0  0  0  0  0  0  0  0
   28.4980    2.0840   10.3030 O   0  0  0  0  0  0  0  0  0  0  0  0
   33.2450    5.0620   13.1410 O   0  0  0  0  0  0  0  0  0  0  0  0
   28.9900    6.7860   13.1830 O   0  0  0  0  0  0  0  0  0  0  0  0
   28.1260    6.8720   16.5750 O   0  0  0  0  0  0  0  0  0  0  0  0
   31.7140    2.7350   12.9620 N   0  3  0  0  0  0  0  0  0  0  0  0
   29.4230    3.5570    8.7930 N   0  0  0  0  0  0  0  0  0  0  0  0
   30.2940    6.3690   14.9830 N   0  0  0  0  0  0  0  0  0  0  0  0
   29.5530   10.4620   19.1700 N   0  0  0  0  0  0  0  0  0  0  0  0
   28.7770    1.0150   11.2310 C   0  0  0  0  0  0  0  0  0  0  0  0
   27.5020    0.2960   11.6700 C   0  0  0  0  0  0  0  0  0  0  0  0
   29.2960   -0.2830   10.5860 C   0  0  0  0  0  0  0  0  0  0  0  0
   29.6360    1.4710   12.4240 C   0  0  0  0  0  0  0  0  0  0  0  0
   28.0810   -1.0320   11.1450 C   0  0  0  0  0  0  0  0  0  0  0  0
   30.9990    1.9730   11.8970 C   0  0  1  0  0  0  0  0  0  0  0  0
   30.8030    2.8160   10.6060 C   0  0  0  0  0  0  0  0  0  0  0  0
   29.5780    2.8130    9.9040 C   0  0  0  0  0  0  0  0  0  0  0  0
   31.0660    4.0210   13.3300 C   0  0  0  0  0  0  0  0  0  0  0  0
   31.8550    3.5890   10.1020 C   0  0  0  0  0  0  0  0  0  0  0  0
   32.1010    4.9720   13.9810 C   0  0  2  0  0  0  0  0  0  0  0  0
   31.6490    4.3450    8.9440 C   0  0  0  0  0  0  0  0  0  0  0  0
   31.5700    6.4040   14.2400 C   0  0  2  0  0  0  0  0  0  0  0  0
   30.4070    4.3020    8.3130 C   0  0  0  0  0  0  0  0  0  0  0  0
   32.7720    5.2070    8.3370 C   0  0  0  0  0  0  0  0  0  0  0  0
   33.5630    4.4350    7.2380 C   0  0  0  0  0  0  0  0  0  0  0  0
   32.6220    7.2620   14.9790 C   0  0  0  0  0  0  0  0  0  0  0  0
   32.6220    3.7560    6.2300 C   0  0  0  0  0  0  0  0  0  0  0  0
   34.4850    3.3860    7.8570 C   0  0  0  0  0  0  0  0  0  0  0  0
   34.4350    5.4190    6.4540 C   0  0  0  0  0  0  0  0  0  0  0  0
   32.0680    8.5880   15.5200 C   0  0  0  0  0  0  0  0  0  0  0  0
   29.1130    6.5630   14.3880 C   0  0  0  0  0  0  0  0  0  0  0  0
   31.5920    8.6330   16.8270 C   0  0  0  0  0  0  0  0  0  0  0  0
   32.0380    9.7420   14.7370 C   0  0  0  0  0  0  0  0  0  0  0  0
   27.8340    6.5140   15.2230 C   0  0  1  0  0  0  0  0  0  0  0  0
   31.0880    9.8050   17.3710 C   0  0  0  0  0  0  0  0  0  0  0  0
   31.5230   10.9300   15.2700 C   0  0  0  0  0  0  0  0  0  0  0  0
   27.2390    5.1100   15.1770 C   0  0  0  0  0  0  0  0  0  0  0  0
   31.0440   10.9650   16.5860 C   0  0  0  0  0  0  0  0  0  0  0  0
   30.5850    9.7720   18.6730 C   0  0  0  0  0  0  0  0  0  0  0  0
   27.8590    8.2570   16.7610 C   0  0  0  0  0  0  0  0  0  0  0  0
   30.0150    9.2690   21.0590 C   0  0  0  0  0  0  0  0  0  0  0  0
   29.2560   10.1980   20.4580 C   0  0  0  0  0  0  0  0  0  0  0  0
   27.3266    0.3129   12.7558 H   0  0  0  0  0  0  0  0  0  0  0  0
   26.5939    0.6296   11.1466 H   0  0  0  0  0  0  0  0  0  0  0  0
   29.3413   -0.2537    9.4873 H   0  0  0  0  0  0  0  0  0  0  0  0
   30.2613   -0.6294   10.9837 H   0  0  0  0  0  0  0  0  0  0  0  0
   29.7941    0.6255   13.1097 H   0  0  0  0  0  0  0  0  0  0  0  0
   29.1240    2.2852   12.9577 H   0  0  0  0  0  0  0  0  0  0  0  0
   27.4619   -1.5193   10.3773 H   0  0  0  0  0  0  0  0  0  0  0  0
   28.3255   -1.7582   11.9342 H   0  0  0  0  0  0  0  0  0  0  0  0
   31.6121    1.0971   11.6383 H   0  0  0  0  0  0  0  0  0  0  0  0
   32.6473    2.9330   12.6367 H   0  0  0  0  0  0  0  0  0  0  0  0
   31.7610    2.1573   13.7867 H   0  0  0  0  0  0  0  0  0  0  0  0
   30.2514    3.8269   14.0433 H   0  0  0  0  0  0  0  0  0  0  0  0
   30.6563    4.4939   12.4253 H   0  0  0  0  0  0  0  0  0  0  0  0
   32.8165    3.6015   10.6025 H   0  0  0  0  0  0  0  0  0  0  0  0
   32.3980    4.5385   14.9474 H   0  0  0  0  0  0  0  0  0  0  0  0
   31.3784    6.8738   13.2640 H   0  0  0  0  0  0  0  0  0  0  0  0
   30.2440    4.8875    7.4154 H   0  0  0  0  0  0  0  0  0  0  0  0
   33.4678    5.5004    9.1369 H   0  0  0  0  0  0  0  0  0  0  0  0
   32.3271    6.1079    7.8892 H   0  0  0  0  0  0  0  0  0  0  0  0
   33.4401    7.4874   14.2790 H   0  0  0  0  0  0  0  0  0  0  0  0
   33.0137    6.6784   15.8252 H   0  0  0  0  0  0  0  0  0  0  0  0
   33.8823    5.6447   13.5371 H   0  0  0  0  0  0  0  0  0  0  0  0
   30.3144    6.1937   15.9673 H   0  0  0  0  0  0  0  0  0  0  0  0
   33.2174    3.2238    5.4736 H   0  0  0  0  0  0  0  0  0  0  0  0
   32.0005    4.5183    5.7375 H   0  0  0  0  0  0  0  0  0  0  0  0
   31.9747    3.0399    6.7575 H   0  0  0  0  0  0  0  0  0  0  0  0
   35.1591    3.8705    8.5787 H   0  0  0  0  0  0  0  0  0  0  0  0
   35.0791    2.9068    7.0649 H   0  0  0  0  0  0  0  0  0  0  0  0
   33.8807    2.6255    8.3732 H   0  0  0  0  0  0  0  0  0  0  0  0
   33.7973    6.1889    5.9951 H   0  0  0  0  0  0  0  0  0  0  0  0
   34.9811    4.8784    5.6669 H   0  0  0  0  0  0  0  0  0  0  0  0
   35.1532    5.8969    7.1365 H   0  0  0  0  0  0  0  0  0  0  0  0
   31.6156    7.7339   17.4320 H   0  0  0  0  0  0  0  0  0  0  0  0
   32.4119    9.7192   13.7198 H   0  0  0  0  0  0  0  0  0  0  0  0
   27.1060    7.2278   14.8100 H   0  0  0  0  0  0  0  0  0  0  0  0
   31.4948   11.8267   14.6616 H   0  0  0  0  0  0  0  0  0  0  0  0
   26.3192    5.0817   15.7797 H   0  0  0  0  0  0  0  0  0  0  0  0
   27.9654    4.3904   15.5826 H   0  0  0  0  0  0  0  0  0  0  0  0
   27.0033    4.8456   14.1356 H   0  0  0  0  0  0  0  0  0  0  0  0
   30.6414   11.8846   16.9950 H   0  0  0  0  0  0  0  0  0  0  0  0
   28.0825    8.5370   17.8010 H   0  0  0  0  0  0  0  0  0  0  0  0
   26.7989    8.4581   16.5469 H   0  0  0  0  0  0  0  0  0  0  0  0
   28.4891    8.8467   16.0790 H   0  0  0  0  0  0  0  0  0  0  0  0
   29.9269    8.9257   22.0887 H   0  0  0  0  0  0  0  0  0  0  0  0
   28.4479   10.7085   20.9799 H   0  0  0  0  0  0  0  0  0  0  0  0
  1 39  1  0  0  0  0
  1 41  1  0  0  0  0
  2 10  1  0  0  0  0
  2 17  1  0  0  0  0
  3 20  1  0  0  0  0
  3 64  1  0  0  0  0
  4 31  2  0  0  0  0
  5 34  1  0  0  0  0
  5 40  1  0  0  0  0
  6 15  1  0  0  0  0
  6 18  1  0  0  0  0
  6 52  1  0  0  0  0
  6 53  1  0  0  0  0
  7 17  1  0  0  0  0
  7 23  2  0  0  0  0
  8 22  1  0  0  0  0
  8 31  1  0  0  0  0
  8 65  1  0  0  0  0
  9 39  2  0  0  0  0
  9 42  1  0  0  0  0
 10 11  1  0  0  0  0
 10 12  1  0  0  0  0
 10 13  1  0  0  0  0
 11 14  1  0  0  0  0
 11 43  1  0  0  0  0
 11 44  1  0  0  0  0
 12 14  1  0  0  0  0
 12 45  1  0  0  0  0
 12 46  1  0  0  0  0
 13 15  1  0  0  0  0
 13 47  1  0  0  0  0
 13 48  1  0  0  0  0
 14 49  1  0  0  0  0
 14 50  1  0  0  0  0
 15 16  1  0  0  0  0
 15 51  1  0  0  0  0
 16 17  2  0  0  0  0
 16 19  1  0  0  0  0
 18 20  1  0  0  0  0
 18 54  1  0  0  0  0
 18 55  1  0  0  0  0
 19 21  2  0  0  0  0
 19 56  1  0  0  0  0
 20 22  1  0  0  0  0
 20 57  1  0  0  0  0
 21 23  1  0  0  0  0
 21 24  1  0  0  0  0
 22 26  1  0  0  0  0
 22 58  1  0  0  0  0
 23 59  1  0  0  0  0
 24 25  1  0  0  0  0
 24 60  1  0  0  0  0
 24 61  1  0  0  0  0
 25 27  1  0  0  0  0
 25 28  1  0  0  0  0
 25 29  1  0  0  0  0
 26 30  1  0  0  0  0
 26 62  1  0  0  0  0
 26 63  1  0  0  0  0
 27 66  1  0  0  0  0
 27 67  1  0  0  0  0
 27 68  1  0  0  0  0
 28 69  1  0  0  0  0
 28 70  1  0  0  0  0
 28 71  1  0  0  0  0
 29 72  1  0  0  0  0
 29 73  1  0  0  0  0
 29 74  1  0  0  0  0
 30 32  1  0  0  0  0
 30 33  2  0  0  0  0
 31 34  1  0  0  0  0
 32 35  2  0  0  0  0
 32 75  1  0  0  0  0
 33 36  1  0  0  0  0
 33 76  1  0  0  0  0
 34 37  1  0  0  0  0
 34 77  1  0  0  0  0
 35 38  1  0  0  0  0
 35 39  1  0  0  0  0
 36 38  2  0  0  0  0
 36 78  1  0  0  0  0
 37 79  1  0  0  0  0
 37 80  1  0  0  0  0
 37 81  1  0  0  0  0
 38 82  1  0  0  0  0
 40 83  1  0  0  0  0
 40 84  1  0  0  0  0
 40 85  1  0  0  0  0
 41 42  2  0  0  0  0
 41 86  1  0  0  0  0
 42 87  1  0  0  0  0
M  CHG  1   6   1
M  END
> <PUBCHEM_COMPOUND_ID_TYPE>
0

> <PUBCHEM_TOTAL_CHARGE>
1

> <PUBCHEM_SUBSTANCE_ID>
170484836

> <PUBCHEM_SUBSTANCE_VERSION>
1

> <PUBCHEM_EXT_DATASOURCE_NAME>
Shanghai Institute of Organic Chemistry

> <PUBCHEM_EXT_DATASOURCE_REGID>
4di2

> <PUBCHEM_SUBSTANCE_COMMENT>
PDB code 4di2, binding affinity data from PDBbind-CN database: IC50=5.5nM

> <PUBCHEM_SUBSTANCE_SYNONYM>
4di2

> <PUBCHEM_XREF_EXT_ID>
4di2

> <PUBCHEM_EXT_DATASOURCE_URL>
http://www.sioc-ccbg.ac.cn/

> <PUBCHEM_EXT_SUBSTANCE_URL>
http://www.pdbbind-cn.org/quickpdb.asp?quickpdb=4di2

> <PUBCHEM_CID_ASSOCIATIONS>
72200865  1
60202321  2

> <PUBCHEM_CONFORMER_ID>
0A29646400010001

> <PUBCHEM_COORDINATE_TYPE>
2
3
4

$$$$
170484925
  -OEChem-11262106393D

 50 53  0     0  0  0  0  0  0999 V2000
   29.7680    1.1560   20.8430 O   0  0  0  0  0  0  0  0  0  0  0  0
   23.5820    2.6570   18.1010 O   0  0  0  0  0  0  0  0  0  0  0  0
   27.1380    0.6050   19.9270 N   0  3  0  0  0  0  0  0  0  0  0  0
   23.9430    0.4690   18.1140 N   0  0  0  0  0  0  0  0  0  0  0  0
   16.6780    1.5780   19.0420 N   0  0  0  0  0  0  0  0  0  0  0  0
   27.4750    0.5120   21.3470 C   0  0  0  0  0  0  0  0  0  0  0  0
   28.1220    1.1520   18.9950 C   0  0  0  0  0  0  0  0  0  0  0  0
   25.8110    0.1090   19.5400 C   0  0  0  0  0  0  0  0  0  0  0  0
   28.6170    1.4820   21.6290 C   0  0  0  0  0  0  0  0  0  0  0  0
   29.4920    0.6970   19.5090 C   0  0  0  0  0  0  0  0  0  0  0  0
   25.4070    0.5150   18.1240 C   0  0  0  0  0  0  0  0  0  0  0  0
   23.1250    1.5280   18.0970 C   0  0  0  0  0  0  0  0  0  0  0  0
   21.6270    1.3570   18.1000 C   0  0  0  0  0  0  0  0  0  0  0  0
   18.8300    1.0500   18.0740 C   0  0  0  0  0  0  0  0  0  0  0  0
   17.3670    0.8130   18.1510 C   0  0  0  0  0  0  0  0  0  0  0  0
   16.7060   -0.1980   17.4380 C   0  0  0  0  0  0  0  0  0  0  0  0
   21.0600    0.0900   18.1850 C   0  0  0  0  0  0  0  0  0  0  0  0
   20.7780    2.4670   18.0230 C   0  0  0  0  0  0  0  0  0  0  0  0
   15.3390   -0.3670   17.6420 C   0  0  0  0  0  0  0  0  0  0  0  0
   19.6790   -0.0580   18.1970 C   0  0  0  0  0  0  0  0  0  0  0  0
   19.3880    2.3200   18.0300 C   0  0  0  0  0  0  0  0  0  0  0  0
   17.3540   -1.0120   16.5030 C   0  0  0  0  0  0  0  0  0  0  0  0
   14.6660    0.4330   18.5520 C   0  0  0  0  0  0  0  0  0  0  0  0
   14.6400   -1.3490   16.9550 C   0  0  0  0  0  0  0  0  0  0  0  0
   15.3570    1.4130   19.2480 C   0  0  0  0  0  0  0  0  0  0  0  0
   16.6440   -1.9860   15.8190 C   0  0  0  0  0  0  0  0  0  0  0  0
   15.2940   -2.1550   16.0440 C   0  0  0  0  0  0  0  0  0  0  0  0
   27.7772   -0.5055   21.5949 H   0  0  0  0  0  0  0  0  0  0  0  0
   26.6075    0.7667   21.9559 H   0  0  0  0  0  0  0  0  0  0  0  0
   28.0595    2.2392   18.9491 H   0  0  0  0  0  0  0  0  0  0  0  0
   27.9438    0.7964   17.9802 H   0  0  0  0  0  0  0  0  0  0  0  0
   25.8419   -0.9800   19.5755 H   0  0  0  0  0  0  0  0  0  0  0  0
   25.0835    0.5401   20.2277 H   0  0  0  0  0  0  0  0  0  0  0  0
   28.8820    1.4151   22.6842 H   0  0  0  0  0  0  0  0  0  0  0  0
   28.2919    2.4907   21.3740 H   0  0  0  0  0  0  0  0  0  0  0  0
   29.4976   -0.3929   19.5235 H   0  0  0  0  0  0  0  0  0  0  0  0
   30.2517    1.1152   18.8486 H   0  0  0  0  0  0  0  0  0  0  0  0
   25.7798    1.5068   17.8683 H   0  0  0  0  0  0  0  0  0  0  0  0
   25.8353   -0.1529   17.3766 H   0  0  0  0  0  0  0  0  0  0  0  0
   23.5077   -0.4534   18.1206 H   0  0  0  0  0  0  0  0  0  0  0  0
   21.7013   -0.7895   18.2424 H   0  0  0  0  0  0  0  0  0  0  0  0
   21.2093    3.4658   17.9563 H   0  0  0  0  0  0  0  0  0  0  0  0
   19.2481   -1.0535   18.3040 H   0  0  0  0  0  0  0  0  0  0  0  0
   18.7447    3.1995   18.0010 H   0  0  0  0  0  0  0  0  0  0  0  0
   18.4190   -0.8800   16.3121 H   0  0  0  0  0  0  0  0  0  0  0  0
   13.5982    0.2923   18.7197 H   0  0  0  0  0  0  0  0  0  0  0  0
   13.5735   -1.4845   17.1345 H   0  0  0  0  0  0  0  0  0  0  0  0
   14.8321    2.0490   19.9608 H   0  0  0  0  0  0  0  0  0  0  0  0
   17.1563   -2.6230   15.0980 H   0  0  0  0  0  0  0  0  0  0  0  0
   14.7433   -2.9245   15.5030 H   0  0  0  0  0  0  0  0  0  0  0  0
  1  9  1  0  0  0  0
  1 10  1  0  0  0  0
  2 12  2  0  0  0  0
  3  6  1  0  0  0  0
  3  7  1  0  0  0  0
  3  8  1  0  0  0  0
  4 11  1  0  0  0  0
  4 12  1  0  0  0  0
  4 40  1  0  0  0  0
  5 15  1  0  0  0  0
  5 25  2  0  0  0  0
  6  9  1  0  0  0  0
  6 28  1  0  0  0  0
  6 29  1  0  0  0  0
  7 10  1  0  0  0  0
  7 30  1  0  0  0  0
  7 31  1  0  0  0  0
  8 11  1  0  0  0  0
  8 32  1  0  0  0  0
  8 33  1  0  0  0  0
  9 34  1  0  0  0  0
  9 35  1  0  0  0  0
 10 36  1  0  0  0  0
 10 37  1  0  0  0  0
 11 38  1  0  0  0  0
 11 39  1  0  0  0  0
 12 13  1  0  0  0  0
 13 17  2  0  0  0  0
 13 18  1  0  0  0  0
 14 15  1  0  0  0  0
 14 20  2  0  0  0  0
 14 21  1  0  0  0  0
 15 16  2  0  0  0  0
 16 19  1  0  0  0  0
 16 22  1  0  0  0  0
 17 20  1  0  0  0  0
 17 41  1  0  0  0  0
 18 21  2  0  0  0  0
 18 42  1  0  0  0  0
 19 23  2  0  0  0  0
 19 24  1  0  0  0  0
 20 43  1  0  0  0  0
 21 44  1  0  0  0  0
 22 26  2  0  0  0  0
 22 45  1  0  0  0  0
 23 25  1  0  0  0  0
 23 46  1  0  0  0  0
 24 27  2  0  0  0  0
 24 47  1  0  0  0  0
 25 48  1  0  0  0  0
 26 27  1  0  0  0  0
 26 49  1  0  0  0  0
 27 50  1  0  0  0  0
M  CHG  1   3   1
M  END
> <PUBCHEM_COMPOUND_ID_TYPE>
0

> <PUBCHEM_TOTAL_CHARGE>
1

> <PUBCHEM_SUBSTANCE_ID>
170484925

> <PUBCHEM_SUBSTANCE_VERSION>
1

> <PUBCHEM_EXT_DATASOURCE_NAME>
Shanghai Institute of Organic Chemistry

> <PUBCHEM_EXT_DATASOURCE_REGID>
4ee0

> <PUBCHEM_SUBSTANCE_COMMENT>
PDB code 4ee0, binding affinity data from PDBbind-CN database: IC50=2.34nM

> <PUBCHEM_SUBSTANCE_SYNONYM>
4ee0

> <PUBCHEM_XREF_EXT_ID>
4ee0

> <PUBCHEM_EXT_DATASOURCE_URL>
http://www.sioc-ccbg.ac.cn/

> <PUBCHEM_EXT_SUBSTANCE_URL>
http://www.pdbbind-cn.org/quickpdb.asp?quickpdb=4ee0

> <PUBCHEM_CID_ASSOCIATIONS>
72200905  1
57383478  2

> <PUBCHEM_CONFORMER_ID>
0A2964BD00010001

> <PUBCHEM_COORDINATE_TYPE>
2
3
4

$$$$
170484924
  -OEChem-11262106393D

 53 56  0     0  0  0  0  0  0999 V2000
   36.1470   20.6260  -22.8590 O   0  0  0  0  0  0  0  0  0  0  0  0
   34.8260   14.9780  -25.9690 O   0  0  0  0  0  0  0  0  0  0  0  0
   35.1730   18.0820  -22.2410 N   0  3  0  0  0  0  0  0  0  0  0  0
   34.6740   14.8060  -23.7440 N   0  0  0  0  0  0  0  0  0  0  0  0
   29.5420   10.3950  -26.7600 N   0  0  0  0  0  0  0  0  0  0  0  0
   36.6180   18.3480  -22.1360 C   0  0  0  0  0  0  0  0  0  0  0  0
   34.6190   18.8330  -23.3770 C   0  0  0  0  0  0  0  0  0  0  0  0
   34.8330   16.6460  -22.2880 C   0  0  0  0  0  0  0  0  0  0  0  0
   36.7950   19.8390  -21.8480 C   0  0  0  0  0  0  0  0  0  0  0  0
   34.7630   20.3140  -23.0450 C   0  0  0  0  0  0  0  0  0  0  0  0
   35.6050   15.8460  -23.3320 C   0  0  0  0  0  0  0  0  0  0  0  0
   34.3380   14.4470  -24.9870 C   0  0  0  0  0  0  0  0  0  0  0  0
   33.3310   13.3520  -25.1920 C   0  0  0  0  0  0  0  0  0  0  0  0
   30.4070   10.2760  -25.7170 C   0  0  0  0  0  0  0  0  0  0  0  0
   30.2580    9.2200  -24.8080 C   0  0  0  0  0  0  0  0  0  0  0  0
   31.4550   11.3210  -25.5750 C   0  0  0  0  0  0  0  0  0  0  0  0
   29.1410    8.2680  -25.0360 C   0  0  0  0  0  0  0  0  0  0  0  0
   32.4430   13.0320  -24.1710 C   0  0  0  0  0  0  0  0  0  0  0  0
   33.2630   12.6700  -26.4120 C   0  0  0  0  0  0  0  0  0  0  0  0
   31.5010   12.0280  -24.3720 C   0  0  0  0  0  0  0  0  0  0  0  0
   32.3260   11.6580  -26.6060 C   0  0  0  0  0  0  0  0  0  0  0  0
   28.3120    8.4580  -26.1230 C   0  0  0  0  0  0  0  0  0  0  0  0
   28.5280    9.5330  -26.9770 C   0  0  0  0  0  0  0  0  0  0  0  0
   31.0910    9.0060  -23.7080 C   0  0  0  0  0  0  0  0  0  0  0  0
   28.9410    7.2070  -24.1600 C   0  0  0  0  0  0  0  0  0  0  0  0
   30.8570    7.9250  -22.8660 C   0  0  0  0  0  0  0  0  0  0  0  0
   29.8040    7.0350  -23.0840 C   0  0  0  0  0  0  0  0  0  0  0  0
   27.6180    9.7370  -28.1600 C   0  0  0  0  0  0  0  0  0  0  0  0
   37.1223   18.0779  -23.0638 H   0  0  0  0  0  0  0  0  0  0  0  0
   37.0568   17.7519  -21.3358 H   0  0  0  0  0  0  0  0  0  0  0  0
   33.5725   18.5737  -23.5372 H   0  0  0  0  0  0  0  0  0  0  0  0
   35.1518   18.5903  -24.2964 H   0  0  0  0  0  0  0  0  0  0  0  0
   35.0859   16.2267  -21.3142 H   0  0  0  0  0  0  0  0  0  0  0  0
   33.7773   16.5770  -22.5503 H   0  0  0  0  0  0  0  0  0  0  0  0
   37.8591   20.0751  -21.8429 H   0  0  0  0  0  0  0  0  0  0  0  0
   36.3490   20.0684  -20.8802 H   0  0  0  0  0  0  0  0  0  0  0  0
   34.3616   20.9116  -23.8635 H   0  0  0  0  0  0  0  0  0  0  0  0
   34.2131   20.5376  -22.1309 H   0  0  0  0  0  0  0  0  0  0  0  0
   35.9274   16.4651  -24.1692 H   0  0  0  0  0  0  0  0  0  0  0  0
   36.5317   15.4341  -22.9324 H   0  0  0  0  0  0  0  0  0  0  0  0
   34.2220   14.2869  -22.9912 H   0  0  0  0  0  0  0  0  0  0  0  0
   32.4846   13.5637  -23.2204 H   0  0  0  0  0  0  0  0  0  0  0  0
   33.9490   12.9330  -27.2172 H   0  0  0  0  0  0  0  0  0  0  0  0
   30.7902   11.7905  -23.5805 H   0  0  0  0  0  0  0  0  0  0  0  0
   32.2755   11.1332  -27.5600 H   0  0  0  0  0  0  0  0  0  0  0  0
   27.4903    7.7670  -26.3111 H   0  0  0  0  0  0  0  0  0  0  0  0
   31.9214    9.6839  -23.5104 H   0  0  0  0  0  0  0  0  0  0  0  0
   28.1134    6.5150  -24.3159 H   0  0  0  0  0  0  0  0  0  0  0  0
   31.5146    7.7678  -22.0110 H   0  0  0  0  0  0  0  0  0  0  0  0
   29.6569    6.1964  -22.4034 H   0  0  0  0  0  0  0  0  0  0  0  0
   27.6679    8.8635  -28.8100 H   0  0  0  0  0  0  0  0  0  0  0  0
   26.5946    9.8733  -27.8103 H   0  0  0  0  0  0  0  0  0  0  0  0
   27.9353   10.6213  -28.7126 H   0  0  0  0  0  0  0  0  0  0  0  0
  1  9  1  0  0  0  0
  1 10  1  0  0  0  0
  2 12  2  0  0  0  0
  3  6  1  0  0  0  0
  3  7  1  0  0  0  0
  3  8  1  0  0  0  0
  4 11  1  0  0  0  0
  4 12  1  0  0  0  0
  4 41  1  0  0  0  0
  5 14  1  0  0  0  0
  5 23  2  0  0  0  0
  6  9  1  0  0  0  0
  6 29  1  0  0  0  0
  6 30  1  0  0  0  0
  7 10  1  0  0  0  0
  7 31  1  0  0  0  0
  7 32  1  0  0  0  0
  8 11  1  0  0  0  0
  8 33  1  0  0  0  0
  8 34  1  0  0  0  0
  9 35  1  0  0  0  0
  9 36  1  0  0  0  0
 10 37  1  0  0  0  0
 10 38  1  0  0  0  0
 11 39  1  0  0  0  0
 11 40  1  0  0  0  0
 12 13  1  0  0  0  0
 13 18  2  0  0  0  0
 13 19  1  0  0  0  0
 14 15  2  0  0  0  0
 14 16  1  0  0  0  0
 15 17  1  0  0  0  0
 15 24  1  0  0  0  0
 16 20  2  0  0  0  0
 16 21  1  0  0  0  0
 17 22  2  0  0  0  0
 17 25  1  0  0  0  0
 18 20  1  0  0  0  0
 18 42  1  0  0  0  0
 19 21  2  0  0  0  0
 19 43  1  0  0  0  0
 20 44  1  0  0  0  0
 21 45  1  0  0  0  0
 22 23  1  0  0  0  0
 22 46  1  0  0  0  0
 23 28  1  0  0  0  0
 24 26  2  0  0  0  0
 24 47  1  0  0  0  0
 25 27  2  0  0  0  0
 25 48  1  0  0  0  0
 26 27  1  0  0  0  0
 26 49  1  0  0  0  0
 27 50  1  0  0  0  0
 28 51  1  0  0  0  0
 28 52  1  0  0  0  0
 28 53  1  0  0  0  0
M  CHG  1   3   1
M  END
> <PUBCHEM_COMPOUND_ID_TYPE>
0

> <PUBCHEM_TOTAL_CHARGE>
1

> <PUBCHEM_SUBSTANCE_ID>
170484924

> <PUBCHEM_SUBSTANCE_VERSION>
1

> <PUBCHEM_EXT_DATASOURCE_NAME>
Shanghai Institute of Organic Chemistry

> <PUBCHEM_EXT_DATASOURCE_REGID>
4edz

> <PUBCHEM_SUBSTANCE_COMMENT>
PDB code 4edz, binding affinity data from PDBbind-CN database: IC50=8.26nM

> <PUBCHEM_SUBSTANCE_SYNONYM>
4edz

> <PUBCHEM_XREF_EXT_ID>
4edz

> <PUBCHEM_EXT_DATASOURCE_URL>
http://www.sioc-ccbg.ac.cn/

> <PUBCHEM_EXT_SUBSTANCE_URL>
http://www.pdbbind-cn.org/quickpdb.asp?quickpdb=4edz

> <PUBCHEM_CID_ASSOCIATIONS>
72200904  1
56962332  2

> <PUBCHEM_CONFORMER_ID>
0A2964BC00010001

> <PUBCHEM_COORDINATE_TYPE>
2
3
4

$$$$
170484923
  -OEChem-11262106393D

 55 58  0     0  0  0  0  0  0999 V2000
   30.0780    0.4560   19.6770 O   0  0  0  0  0  0  0  0  0  0  0  0
   24.0240    2.7380   17.2800 O   0  0  0  0  0  0  0  0  0  0  0  0
   17.0100    5.0880   20.1170 O   0  0  0  0  0  0  0  0  0  0  0  0
   27.3860    0.8440   18.9200 N   0  3  0  0  0  0  0  0  0  0  0  0
   23.8550    0.6070   17.9270 N   0  0  0  0  0  0  0  0  0  0  0  0
   27.9410   -0.5070   19.1250 C   0  0  0  0  0  0  0  0  0  0  0  0
   28.0580    1.7870   19.8280 C   0  0  0  0  0  0  0  0  0  0  0  0
   25.9300    0.8560   19.1520 C   0  0  0  0  0  0  0  0  0  0  0  0
   29.4350   -0.4910   18.8250 C   0  0  0  0  0  0  0  0  0  0  0  0
   29.5570    1.7790   19.5390 C   0  0  0  0  0  0  0  0  0  0  0  0
   25.2470    0.1910   17.9610 C   0  0  0  0  0  0  0  0  0  0  0  0
   17.5650    2.1700   17.7910 C   0  0  0  0  0  0  0  0  0  0  0  0
   16.7070    1.0870   17.2300 C   0  0  0  0  0  0  0  0  0  0  0  0
   19.0490    2.1170   17.7010 C   0  0  0  0  0  0  0  0  0  0  0  0
   16.8860    3.2960   18.4860 C   0  0  0  0  0  0  0  0  0  0  0  0
   15.2350    1.2140   17.3930 C   0  0  0  0  0  0  0  0  0  0  0  0
   23.3300    1.7870   17.6050 C   0  0  0  0  0  0  0  0  0  0  0  0
   21.8330    1.9190   17.6420 C   0  0  0  0  0  0  0  0  0  0  0  0
   15.4890    3.3210   18.5790 C   0  0  0  0  0  0  0  0  0  0  0  0
   19.7990    3.0840   17.0420 C   0  0  0  0  0  0  0  0  0  0  0  0
   19.6930    1.0630   18.3410 C   0  0  0  0  0  0  0  0  0  0  0  0
   14.6860    2.3100   18.0510 C   0  0  0  0  0  0  0  0  0  0  0  0
   21.1910    2.9810   17.0090 C   0  0  0  0  0  0  0  0  0  0  0  0
   21.0750    0.9600   18.3050 C   0  0  0  0  0  0  0  0  0  0  0  0
   17.2160   -0.0250   16.5590 C   0  0  0  0  0  0  0  0  0  0  0  0
   17.7190    4.4130   19.0790 C   0  0  0  0  0  0  0  0  0  0  0  0
   14.4070    0.2260   16.8770 C   0  0  0  0  0  0  0  0  0  0  0  0
   16.3390   -0.9850   16.0590 C   0  0  0  0  0  0  0  0  0  0  0  0
   14.9640   -0.8630   16.2160 C   0  0  0  0  0  0  0  0  0  0  0  0
   27.4431   -1.2103   18.4575 H   0  0  0  0  0  0  0  0  0  0  0  0
   27.7805   -0.8136   20.1586 H   0  0  0  0  0  0  0  0  0  0  0  0
   27.8828    1.4880   20.8615 H   0  0  0  0  0  0  0  0  0  0  0  0
   27.6607    2.7902   19.6735 H   0  0  0  0  0  0  0  0  0  0  0  0
   25.6938    0.3140   20.0677 H   0  0  0  0  0  0  0  0  0  0  0  0
   25.5778    1.8820   19.2588 H   0  0  0  0  0  0  0  0  0  0  0  0
   29.5947   -0.2117   17.7836 H   0  0  0  0  0  0  0  0  0  0  0  0
   29.8528   -1.4823   19.0010 H   0  0  0  0  0  0  0  0  0  0  0  0
   29.7260    2.1248   18.5192 H   0  0  0  0  0  0  0  0  0  0  0  0
   30.0608    2.4369   20.2471 H   0  0  0  0  0  0  0  0  0  0  0  0
   25.7438    0.4878   17.0373 H   0  0  0  0  0  0  0  0  0  0  0  0
   25.3062   -0.8930   18.0592 H   0  0  0  0  0  0  0  0  0  0  0  0
   23.1803   -0.1118   18.1887 H   0  0  0  0  0  0  0  0  0  0  0  0
   15.0114    4.1615   19.0826 H   0  0  0  0  0  0  0  0  0  0  0  0
   19.3015    3.9210   16.5520 H   0  0  0  0  0  0  0  0  0  0  0  0
   19.1075    0.3138   18.8739 H   0  0  0  0  0  0  0  0  0  0  0  0
   13.6034    2.3803   18.1564 H   0  0  0  0  0  0  0  0  0  0  0  0
   21.7783    3.7353   16.4854 H   0  0  0  0  0  0  0  0  0  0  0  0
   21.5697    0.1235   18.7986 H   0  0  0  0  0  0  0  0  0  0  0  0
   18.2916   -0.1419   16.4269 H   0  0  0  0  0  0  0  0  0  0  0  0
   17.9510    5.1304   18.2918 H   0  0  0  0  0  0  0  0  0  0  0  0
   18.6283    3.9839   19.5000 H   0  0  0  0  0  0  0  0  0  0  0  0
   13.3256    0.3038   16.9896 H   0  0  0  0  0  0  0  0  0  0  0  0
   16.7405   -1.8511   15.5329 H   0  0  0  0  0  0  0  0  0  0  0  0
   14.3093   -1.6359   15.8132 H   0  0  0  0  0  0  0  0  0  0  0  0
   17.5594    5.7893   20.4745 H   0  0  0  0  0  0  0  0  0  0  0  0
  1  9  1  0  0  0  0
  1 10  1  0  0  0  0
  2 17  2  0  0  0  0
  3 26  1  0  0  0  0
  3 55  1  0  0  0  0
  4  6  1  0  0  0  0
  4  7  1  0  0  0  0
  4  8  1  0  0  0  0
  5 11  1  0  0  0  0
  5 17  1  0  0  0  0
  5 42  1  0  0  0  0
  6  9  1  0  0  0  0
  6 30  1  0  0  0  0
  6 31  1  0  0  0  0
  7 10  1  0  0  0  0
  7 32  1  0  0  0  0
  7 33  1  0  0  0  0
  8 11  1  0  0  0  0
  8 34  1  0  0  0  0
  8 35  1  0  0  0  0
  9 36  1  0  0  0  0
  9 37  1  0  0  0  0
 10 38  1  0  0  0  0
 10 39  1  0  0  0  0
 11 40  1  0  0  0  0
 11 41  1  0  0  0  0
 12 13  1  0  0  0  0
 12 14  1  0  0  0  0
 12 15  2  0  0  0  0
 13 16  2  0  0  0  0
 13 25  1  0  0  0  0
 14 20  2  0  0  0  0
 14 21  1  0  0  0  0
 15 19  1  0  0  0  0
 15 26  1  0  0  0  0
 16 22  1  0  0  0  0
 16 27  1  0  0  0  0
 17 18  1  0  0  0  0
 18 23  2  0  0  0  0
 18 24  1  0  0  0  0
 19 22  2  0  0  0  0
 19 43  1  0  0  0  0
 20 23  1  0  0  0  0
 20 44  1  0  0  0  0
 21 24  2  0  0  0  0
 21 45  1  0  0  0  0
 22 46  1  0  0  0  0
 23 47  1  0  0  0  0
 24 48  1  0  0  0  0
 25 28  2  0  0  0  0
 25 49  1  0  0  0  0
 26 50  1  0  0  0  0
 26 51  1  0  0  0  0
 27 29  2  0  0  0  0
 27 52  1  0  0  0  0
 28 29  1  0  0  0  0
 28 53  1  0  0  0  0
 29 54  1  0  0  0  0
M  CHG  1   4   1
M  END
> <PUBCHEM_COMPOUND_ID_TYPE>
0

> <PUBCHEM_TOTAL_CHARGE>
1

> <PUBCHEM_SUBSTANCE_ID>
170484923

> <PUBCHEM_SUBSTANCE_VERSION>
1

> <PUBCHEM_EXT_DATASOURCE_NAME>
Shanghai Institute of Organic Chemistry

> <PUBCHEM_EXT_DATASOURCE_REGID>
4edy

> <PUBCHEM_SUBSTANCE_COMMENT>
PDB code 4edy, binding affinity data from PDBbind-CN database: IC50=1480nM

> <PUBCHEM_SUBSTANCE_SYNONYM>
4edy

> <PUBCHEM_XREF_EXT_ID>
4edy

> <PUBCHEM_EXT_DATASOURCE_URL>
http://www.sioc-ccbg.ac.cn/

> <PUBCHEM_EXT_SUBSTANCE_URL>
http://www.pdbbind-cn.org/quickpdb.asp?quickpdb=4edy

> <PUBCHEM_CID_ASSOCIATIONS>
72200903  1
60196237  2

> <PUBCHEM_CONFORMER_ID>
0A2964BB00010001

> <PUBCHEM_COORDINATE_TYPE>
2
3
4

$$$$
170484919
  -OEChem-11262106393D

 57 60  0     0  0  0  0  0  0999 V2000
   29.7900    4.7350   15.7860 O   0  0  0  0  0  0  0  0  0  0  0  0
   23.9440    0.0490   18.1510 O   0  0  0  0  0  0  0  0  0  0  0  0
   27.3240    3.9100   17.0440 N   0  3  0  0  0  0  0  0  0  0  0  0
   24.0490    2.0730   17.1750 N   0  0  0  0  0  0  0  0  0  0  0  0
   16.9440    4.2920   20.2120 N   0  3  0  0  0  0  0  0  0  0  0  0
   27.5390    5.3110   16.5720 C   0  0  0  0  0  0  0  0  0  0  0  0
   28.1910    2.9690   16.2720 C   0  0  0  0  0  0  0  0  0  0  0  0
   25.9160    3.5810   16.7350 C   0  0  0  0  0  0  0  0  0  0  0  0
   29.0480    5.6580   16.6200 C   0  0  0  0  0  0  0  0  0  0  0  0
   29.6670    3.4090   16.3420 C   0  0  0  0  0  0  0  0  0  0  0  0
   25.4410    2.3590   17.5410 C   0  0  0  0  0  0  0  0  0  0  0  0
   17.4880    1.3680   17.9130 C   0  0  0  0  0  0  0  0  0  0  0  0
   16.8310    2.4920   18.5330 C   0  0  0  0  0  0  0  0  0  0  0  0
   16.6320    0.3060   17.3550 C   0  0  0  0  0  0  0  0  0  0  0  0
   19.0130    1.2890   17.8460 C   0  0  0  0  0  0  0  0  0  0  0  0
   15.1700    0.4240   17.4790 C   0  0  0  0  0  0  0  0  0  0  0  0
   17.6450    3.6350   19.1320 C   0  0  0  0  0  0  0  0  0  0  0  0
   15.4080    2.5500   18.6040 C   0  0  0  0  0  0  0  0  0  0  0  0
   21.8570    1.1100   17.7750 C   0  0  0  0  0  0  0  0  0  0  0  0
   23.3520    1.0380   17.7200 C   0  0  0  0  0  0  0  0  0  0  0  0
   14.5970    1.5560   18.1010 C   0  0  0  0  0  0  0  0  0  0  0  0
   19.6950    0.2230   18.5160 C   0  0  0  0  0  0  0  0  0  0  0  0
   19.7810    2.2550   17.1520 C   0  0  0  0  0  0  0  0  0  0  0  0
   17.1580   -0.8630   16.7010 C   0  0  0  0  0  0  0  0  0  0  0  0
   21.0960    0.1340   18.4770 C   0  0  0  0  0  0  0  0  0  0  0  0
   21.1820    2.1640   17.1200 C   0  0  0  0  0  0  0  0  0  0  0  0
   14.3420   -0.6110   16.9560 C   0  0  0  0  0  0  0  0  0  0  0  0
   16.3040   -1.8350   16.2040 C   0  0  0  0  0  0  0  0  0  0  0  0
   14.9100   -1.7130   16.3370 C   0  0  0  0  0  0  0  0  0  0  0  0
   26.9918    5.9963   17.2193 H   0  0  0  0  0  0  0  0  0  0  0  0
   27.1813    5.4037   15.5465 H   0  0  0  0  0  0  0  0  0  0  0  0
   27.8716    2.9691   15.2298 H   0  0  0  0  0  0  0  0  0  0  0  0
   28.0993    1.9714   16.7016 H   0  0  0  0  0  0  0  0  0  0  0  0
   25.2928    4.4356   16.9986 H   0  0  0  0  0  0  0  0  0  0  0  0
   25.8376    3.3494   15.6728 H   0  0  0  0  0  0  0  0  0  0  0  0
   29.4032    5.5809   17.6476 H   0  0  0  0  0  0  0  0  0  0  0  0
   29.1962    6.6739   16.2538 H   0  0  0  0  0  0  0  0  0  0  0  0
   29.9999    3.4138   17.3799 H   0  0  0  0  0  0  0  0  0  0  0  0
   30.2847    2.7138   15.7735 H   0  0  0  0  0  0  0  0  0  0  0  0
   26.0696    1.4974   17.3161 H   0  0  0  0  0  0  0  0  0  0  0  0
   25.5099    2.5675   18.6086 H   0  0  0  0  0  0  0  0  0  0  0  0
   23.5877    2.6701   16.4887 H   0  0  0  0  0  0  0  0  0  0  0  0
   17.8283    4.3699   18.3481 H   0  0  0  0  0  0  0  0  0  0  0  0
   18.5718    3.2213   19.5294 H   0  0  0  0  0  0  0  0  0  0  0  0
   14.9429    3.4158   19.0753 H   0  0  0  0  0  0  0  0  0  0  0  0
   13.5136    1.6429   18.1829 H   0  0  0  0  0  0  0  0  0  0  0  0
   19.1214   -0.5264   19.0614 H   0  0  0  0  0  0  0  0  0  0  0  0
   19.2808    3.0760   16.6384 H   0  0  0  0  0  0  0  0  0  0  0  0
   18.2360   -0.9849   16.5957 H   0  0  0  0  0  0  0  0  0  0  0  0
   21.6023   -0.6859   18.9864 H   0  0  0  0  0  0  0  0  0  0  0  0
   21.7570    2.9176   16.5819 H   0  0  0  0  0  0  0  0  0  0  0  0
   13.2581   -0.5356   17.0431 H   0  0  0  0  0  0  0  0  0  0  0  0
   17.5222    5.0466   20.5817 H   0  0  0  0  0  0  0  0  0  0  0  0
   16.0657    4.6751   19.8623 H   0  0  0  0  0  0  0  0  0  0  0  0
   16.7511    3.6163   20.9513 H   0  0  0  0  0  0  0  0  0  0  0  0
   16.7202   -2.7083   15.7018 H   0  0  0  0  0  0  0  0  0  0  0  0
   14.2642   -2.4993   15.9462 H   0  0  0  0  0  0  0  0  0  0  0  0
  1  9  1  0  0  0  0
  1 10  1  0  0  0  0
  2 20  2  0  0  0  0
  3  6  1  0  0  0  0
  3  7  1  0  0  0  0
  3  8  1  0  0  0  0
  4 11  1  0  0  0  0
  4 20  1  0  0  0  0
  4 42  1  0  0  0  0
  5 17  1  0  0  0  0
  5 53  1  0  0  0  0
  5 54  1  0  0  0  0
  5 55  1  0  0  0  0
  6  9  1  0  0  0  0
  6 30  1  0  0  0  0
  6 31  1  0  0  0  0
  7 10  1  0  0  0  0
  7 32  1  0  0  0  0
  7 33  1  0  0  0  0
  8 11  1  0  0  0  0
  8 34  1  0  0  0  0
  8 35  1  0  0  0  0
  9 36  1  0  0  0  0
  9 37  1  0  0  0  0
 10 38  1  0  0  0  0
 10 39  1  0  0  0  0
 11 40  1  0  0  0  0
 11 41  1  0  0  0  0
 12 13  2  0  0  0  0
 12 14  1  0  0  0  0
 12 15  1  0  0  0  0
 13 17  1  0  0  0  0
 13 18  1  0  0  0  0
 14 16  2  0  0  0  0
 14 24  1  0  0  0  0
 15 22  2  0  0  0  0
 15 23  1  0  0  0  0
 16 21  1  0  0  0  0
 16 27  1  0  0  0  0
 17 43  1  0  0  0  0
 17 44  1  0  0  0  0
 18 21  2  0  0  0  0
 18 45  1  0  0  0  0
 19 20  1  0  0  0  0
 19 25  2  0  0  0  0
 19 26  1  0  0  0  0
 21 46  1  0  0  0  0
 22 25  1  0  0  0  0
 22 47  1  0  0  0  0
 23 26  2  0  0  0  0
 23 48  1  0  0  0  0
 24 28  2  0  0  0  0
 24 49  1  0  0  0  0
 25 50  1  0  0  0  0
 26 51  1  0  0  0  0
 27 29  2  0  0  0  0
 27 52  1  0  0  0  0
 28 29  1  0  0  0  0
 28 56  1  0  0  0  0
 29 57  1  0  0  0  0
M  CHG  2   3   1   5   1
M  END
> <PUBCHEM_COMPOUND_ID_TYPE>
0

> <PUBCHEM_TOTAL_CHARGE>
2

> <PUBCHEM_SUBSTANCE_ID>
170484919

> <PUBCHEM_SUBSTANCE_VERSION>
1

> <PUBCHEM_EXT_DATASOURCE_NAME>
Shanghai Institute of Organic Chemistry

> <PUBCHEM_EXT_DATASOURCE_REGID>
4ec0

> <PUBCHEM_SUBSTANCE_COMMENT>
PDB code 4ec0, binding affinity data from PDBbind-CN database: IC50=845nM

> <PUBCHEM_SUBSTANCE_SYNONYM>
4ec0

> <PUBCHEM_XREF_EXT_ID>
4ec0

> <PUBCHEM_EXT_DATASOURCE_URL>
http://www.sioc-ccbg.ac.cn/

> <PUBCHEM_EXT_SUBSTANCE_URL>
http://www.pdbbind-cn.org/quickpdb.asp?quickpdb=4ec0

> <PUBCHEM_CID_ASSOCIATIONS>
72200902  1
56962331  2

> <PUBCHEM_CONFORMER_ID>
0A2964B700010001

> <PUBCHEM_COORDINATE_TYPE>
2
3
4

$$$$
170484918
  -OEChem-11262106393D

 47 50  0     1  0  0  0  0  0999 V2000
    8.5970   -0.1750   23.6510 S   0  0  0  0  0  0  0  0  0  0  0  0
    7.4440   -0.9190   24.0180 O   0  0  0  0  0  0  0  0  0  0  0  0
    9.9230   -0.6860   23.6160 O   0  0  0  0  0  0  0  0  0  0  0  0
    8.2900    0.3990   22.1330 N   0  0  3  0  0  0  0  0  0  0  0  0
    8.8530    3.3930   25.1660 N   0  0  0  0  0  0  0  0  0  0  0  0
    8.6430    2.6320   26.3330 N   0  0  0  0  0  0  0  0  0  0  0  0
    8.8370    2.5150   24.1270 C   0  0  0  0  0  0  0  0  0  0  0  0
    9.0360    2.6900   22.6690 C   0  0  0  0  0  0  0  0  0  0  0  0
    8.6480    1.2580   24.6740 C   0  0  0  0  0  0  0  0  0  0  0  0
    8.7940    1.6500   21.7530 C   0  0  0  0  0  0  0  0  0  0  0  0
    9.5320    3.9070   22.2100 C   0  0  0  0  0  0  0  0  0  0  0  0
    8.5260    1.3620   26.0310 C   0  0  0  0  0  0  0  0  0  0  0  0
    9.0400    1.8750   20.3950 C   0  0  0  0  0  0  0  0  0  0  0  0
    9.7650    4.1100   20.8630 C   0  0  0  0  0  0  0  0  0  0  0  0
    9.0110    4.8620   25.1280 C   0  0  0  0  0  0  0  0  0  0  0  0
    7.4580   -0.4270   21.2410 C   0  0  0  0  0  0  0  0  0  0  0  0
    9.5110    3.0820   19.9510 C   0  0  0  0  0  0  0  0  0  0  0  0
   10.2760    5.4250   20.4050 C   0  0  0  0  0  0  0  0  0  0  0  0
   10.4660    5.2690   25.3700 C   0  0  0  0  0  0  0  0  0  0  0  0
   11.2520    6.1090   21.1390 C   0  0  0  0  0  0  0  0  0  0  0  0
    9.7620    5.9820   19.2310 C   0  0  0  0  0  0  0  0  0  0  0  0
   11.1870    7.8880   19.5190 C   0  0  0  0  0  0  0  0  0  0  0  0
   11.7020    7.3330   20.6890 C   0  0  0  0  0  0  0  0  0  0  0  0
   10.2140    7.2080   18.7960 C   0  0  0  0  0  0  0  0  0  0  0  0
   11.6670    9.2370   19.0120 C   0  0  0  0  0  0  0  0  0  0  0  0
   13.0750    9.1250   18.4220 C   0  0  0  0  0  0  0  0  0  0  0  0
    9.7387    4.7078   22.9200 H   0  0  0  0  0  0  0  0  0  0  0  0
    8.3621    0.5426   26.7309 H   0  0  0  0  0  0  0  0  0  0  0  0
    8.8537    1.0760   19.6774 H   0  0  0  0  0  0  0  0  0  0  0  0
    8.3927    5.2986   25.9123 H   0  0  0  0  0  0  0  0  0  0  0  0
    8.7093    5.2188   24.1432 H   0  0  0  0  0  0  0  0  0  0  0  0
    7.9390   -1.3933   21.0892 H   0  0  0  0  0  0  0  0  0  0  0  0
    6.4778   -0.5748   21.6942 H   0  0  0  0  0  0  0  0  0  0  0  0
    7.3438    0.0781   20.2819 H   0  0  0  0  0  0  0  0  0  0  0  0
    9.6876    3.2407   18.8872 H   0  0  0  0  0  0  0  0  0  0  0  0
   10.7845    4.9098   26.3486 H   0  0  0  0  0  0  0  0  0  0  0  0
   11.0978    4.8308   24.5974 H   0  0  0  0  0  0  0  0  0  0  0  0
   10.5486    6.3553   25.3358 H   0  0  0  0  0  0  0  0  0  0  0  0
   11.6525    5.6789   22.0570 H   0  0  0  0  0  0  0  0  0  0  0  0
    9.0037    5.4464   18.6598 H   0  0  0  0  0  0  0  0  0  0  0  0
   12.4654    7.8696   21.2523 H   0  0  0  0  0  0  0  0  0  0  0  0
    9.8083    7.6455   17.8838 H   0  0  0  0  0  0  0  0  0  0  0  0
   10.9861    9.5832   18.2344 H   0  0  0  0  0  0  0  0  0  0  0  0
   11.6897    9.9386   19.8459 H   0  0  0  0  0  0  0  0  0  0  0  0
   13.7627    8.7724   19.1907 H   0  0  0  0  0  0  0  0  0  0  0  0
   13.0643    8.4197   17.5910 H   0  0  0  0  0  0  0  0  0  0  0  0
   13.3971   10.1034   18.0656 H   0  0  0  0  0  0  0  0  0  0  0  0
  1  2  2  0  0  0  0
  1  3  2  0  0  0  0
  1  4  1  0  0  0  0
  1  9  1  0  0  0  0
  4 10  1  0  0  0  0
  4 16  1  0  0  0  0
  5  6  1  0  0  0  0
  5  7  1  0  0  0  0
  5 15  1  0  0  0  0
  6 12  2  0  0  0  0
  7  8  1  0  0  0  0
  7  9  2  0  0  0  0
  8 10  2  0  0  0  0
  8 11  1  0  0  0  0
  9 12  1  0  0  0  0
 10 13  1  0  0  0  0
 11 14  2  0  0  0  0
 11 27  1  0  0  0  0
 12 28  1  0  0  0  0
 13 17  2  0  0  0  0
 13 29  1  0  0  0  0
 14 17  1  0  0  0  0
 14 18  1  0  0  0  0
 15 19  1  0  0  0  0
 15 30  1  0  0  0  0
 15 31  1  0  0  0  0
 16 32  1  0  0  0  0
 16 33  1  0  0  0  0
 16 34  1  0  0  0  0
 17 35  1  0  0  0  0
 18 20  2  0  0  0  0
 18 21  1  0  0  0  0
 19 36  1  0  0  0  0
 19 37  1  0  0  0  0
 19 38  1  0  0  0  0
 20 23  1  0  0  0  0
 20 39  1  0  0  0  0
 21 24  2  0  0  0  0
 21 40  1  0  0  0  0
 22 23  2  0  0  0  0
 22 24  1  0  0  0  0
 22 25  1  0  0  0  0
 23 41  1  0  0  0  0
 24 42  1  0  0  0  0
 25 26  1  0  0  0  0
 25 43  1  0  0  0  0
 25 44  1  0  0  0  0
 26 45  1  0  0  0  0
 26 46  1  0  0  0  0
 26 47  1  0  0  0  0
M  END
> <PUBCHEM_COMPOUND_ID_TYPE>
0

> <PUBCHEM_TOTAL_CHARGE>
0

> <PUBCHEM_SUBSTANCE_ID>
170484918

> <PUBCHEM_SUBSTANCE_VERSION>
1

> <PUBCHEM_EXT_DATASOURCE_NAME>
Shanghai Institute of Organic Chemistry

> <PUBCHEM_EXT_DATASOURCE_REGID>
4ebw

> <PUBCHEM_SUBSTANCE_COMMENT>
PDB code 4ebw, binding affinity data from PDBbind-CN database: IC50=8.7uM

> <PUBCHEM_SUBSTANCE_SYNONYM>
4ebw

> <PUBCHEM_XREF_EXT_ID>
4ebw

> <PUBCHEM_EXT_DATASOURCE_URL>
http://www.sioc-ccbg.ac.cn/

> <PUBCHEM_EXT_SUBSTANCE_URL>
http://www.pdbbind-cn.org/quickpdb.asp?quickpdb=4ebw

> <PUBCHEM_CID_ASSOCIATIONS>
71578921  1

> <PUBCHEM_CONFORMER_ID>
0A2964B600010001

> <PUBCHEM_COORDINATE_TYPE>
2
3
4

$$$$
170484917
  -OEChem-11262106393D

 41 44  0     1  0  0  0  0  0999 V2000
  -12.1920   -0.1090  -13.8060 S   0  0  0  0  0  0  0  0  0  0  0  0
  -13.5780    0.1550  -14.0790 O   0  0  0  0  0  0  0  0  0  0  0  0
  -11.7810   -1.4270  -13.3920 O   0  0  0  0  0  0  0  0  0  0  0  0
  -11.4870    0.2640  -15.2660 N   0  0  3  0  0  0  0  0  0  0  0  0
  -10.7580    3.0430  -12.1300 N   0  0  0  0  0  0  0  0  0  0  0  0
  -11.0760    2.3020  -10.9930 N   0  0  0  0  0  0  0  0  0  0  0  0
  -10.9890    2.6250  -14.6150 C   0  0  0  0  0  0  0  0  0  0  0  0
  -11.2050    1.5980  -15.5830 C   0  0  0  0  0  0  0  0  0  0  0  0
  -11.0890    2.3260  -13.1660 C   0  0  0  0  0  0  0  0  0  0  0  0
  -11.6040    1.0990  -12.6820 C   0  0  0  0  0  0  0  0  0  0  0  0
  -10.6700    3.9310  -15.0260 C   0  0  0  0  0  0  0  0  0  0  0  0
  -10.5810    4.2550  -16.3930 C   0  0  0  0  0  0  0  0  0  0  0  0
  -11.1100    1.9260  -16.9370 C   0  0  0  0  0  0  0  0  0  0  0  0
  -11.1960   -0.8170  -16.2160 C   0  0  0  0  0  0  0  0  0  0  0  0
  -10.8130    3.2300  -17.3270 C   0  0  0  0  0  0  0  0  0  0  0  0
  -11.5770    1.1150  -11.3510 C   0  0  0  0  0  0  0  0  0  0  0  0
  -10.2040    5.6370  -16.8490 C   0  0  0  0  0  0  0  0  0  0  0  0
   -9.2010    6.3470  -16.1420 C   0  0  0  0  0  0  0  0  0  0  0  0
  -10.7710    6.2450  -17.9820 C   0  0  0  0  0  0  0  0  0  0  0  0
   -9.3760    8.2090  -17.6400 C   0  0  0  0  0  0  0  0  0  0  0  0
   -8.7830    7.6220  -16.5230 C   0  0  0  0  0  0  0  0  0  0  0  0
  -10.3520    7.5220  -18.3540 C   0  0  0  0  0  0  0  0  0  0  0  0
   -8.9670    9.6000  -18.0830 C   0  0  0  0  0  0  0  0  0  0  0  0
   -8.0970    9.4540  -19.3230 C   0  0  0  0  0  0  0  0  0  0  0  0
  -10.4894    4.7021  -14.2771 H   0  0  0  0  0  0  0  0  0  0  0  0
  -11.2692    1.1573  -17.6932 H   0  0  0  0  0  0  0  0  0  0  0  0
  -10.5104   -1.5286  -15.7559 H   0  0  0  0  0  0  0  0  0  0  0  0
  -12.1233   -1.3242  -16.4825 H   0  0  0  0  0  0  0  0  0  0  0  0
  -10.7390   -0.3979  -17.1125 H   0  0  0  0  0  0  0  0  0  0  0  0
  -10.7587    3.4631  -18.3904 H   0  0  0  0  0  0  0  0  0  0  0  0
  -10.3428    3.9745  -12.1476 H   0  0  0  0  0  0  0  0  0  0  0  0
  -11.9002    0.3163  -10.6834 H   0  0  0  0  0  0  0  0  0  0  0  0
   -8.7408    5.8806  -15.2709 H   0  0  0  0  0  0  0  0  0  0  0  0
  -11.5308    5.7236  -18.5643 H   0  0  0  0  0  0  0  0  0  0  0  0
   -8.0109    8.1471  -15.9607 H   0  0  0  0  0  0  0  0  0  0  0  0
  -10.8014    7.9943  -19.2276 H   0  0  0  0  0  0  0  0  0  0  0  0
   -9.8483   10.2011  -18.3068 H   0  0  0  0  0  0  0  0  0  0  0  0
   -8.4148   10.1036  -17.2895 H   0  0  0  0  0  0  0  0  0  0  0  0
   -7.2167    8.8590  -19.0797 H   0  0  0  0  0  0  0  0  0  0  0  0
   -8.6667    8.9577  -20.1086 H   0  0  0  0  0  0  0  0  0  0  0  0
   -7.7866   10.4410  -19.6658 H   0  0  0  0  0  0  0  0  0  0  0  0
  1  2  2  0  0  0  0
  1  3  2  0  0  0  0
  1  4  1  0  0  0  0
  1 10  1  0  0  0  0
  4  8  1  0  0  0  0
  4 14  1  0  0  0  0
  5  6  1  0  0  0  0
  5  9  1  0  0  0  0
  5 31  1  0  0  0  0
  6 16  2  0  0  0  0
  7  8  2  0  0  0  0
  7  9  1  0  0  0  0
  7 11  1  0  0  0  0
  8 13  1  0  0  0  0
  9 10  2  0  0  0  0
 10 16  1  0  0  0  0
 11 12  2  0  0  0  0
 11 25  1  0  0  0  0
 12 15  1  0  0  0  0
 12 17  1  0  0  0  0
 13 15  2  0  0  0  0
 13 26  1  0  0  0  0
 14 27  1  0  0  0  0
 14 28  1  0  0  0  0
 14 29  1  0  0  0  0
 15 30  1  0  0  0  0
 16 32  1  0  0  0  0
 17 18  2  0  0  0  0
 17 19  1  0  0  0  0
 18 21  1  0  0  0  0
 18 33  1  0  0  0  0
 19 22  2  0  0  0  0
 19 34  1  0  0  0  0
 20 21  2  0  0  0  0
 20 22  1  0  0  0  0
 20 23  1  0  0  0  0
 21 35  1  0  0  0  0
 22 36  1  0  0  0  0
 23 24  1  0  0  0  0
 23 37  1  0  0  0  0
 23 38  1  0  0  0  0
 24 39  1  0  0  0  0
 24 40  1  0  0  0  0
 24 41  1  0  0  0  0
M  END
> <PUBCHEM_COMPOUND_ID_TYPE>
0

> <PUBCHEM_TOTAL_CHARGE>
0

> <PUBCHEM_SUBSTANCE_ID>
170484917

> <PUBCHEM_SUBSTANCE_VERSION>
1

> <PUBCHEM_EXT_DATASOURCE_NAME>
Shanghai Institute of Organic Chemistry

> <PUBCHEM_EXT_DATASOURCE_REGID>
4ebv

> <PUBCHEM_SUBSTANCE_COMMENT>
PDB code 4ebv, binding affinity data from PDBbind-CN database: IC50=4.2uM

> <PUBCHEM_SUBSTANCE_SYNONYM>
4ebv

> <PUBCHEM_XREF_EXT_ID>
4ebv

> <PUBCHEM_EXT_DATASOURCE_URL>
http://www.sioc-ccbg.ac.cn/

> <PUBCHEM_EXT_SUBSTANCE_URL>
http://www.pdbbind-cn.org/quickpdb.asp?quickpdb=4ebv

> <PUBCHEM_CID_ASSOCIATIONS>
71568837  1

> <PUBCHEM_CONFORMER_ID>
0A2964B500010001

> <PUBCHEM_COORDINATE_TYPE>
2
3
4

$$$$
170484988
  -OEChem-11262106393D

 30 31  0     0  0  0  0  0  0999 V2000
   -6.8650  -10.7480   28.1750 S   0  0  0  0  0  0  0  0  0  0  0  0
   -6.4720  -11.8710   27.3680 O   0  0  0  0  0  0  0  0  0  0  0  0
   -7.9450  -10.1570   27.3370 O   0  0  0  0  0  0  0  0  0  0  0  0
   -1.6760   -4.0230   29.0480 O   0  0  0  0  0  0  0  0  0  0  0  0
    1.8320   -2.5690   26.5410 O   0  0  0  0  0  0  0  0  0  0  0  0
   -7.3320  -11.2200   29.6360 N   0  0  0  0  0  0  0  0  0  0  0  0
   -2.5790   -6.6350   28.7020 N   0  0  0  0  0  0  0  0  0  0  0  0
    0.0160   -3.3490   27.8250 N   0  0  0  0  0  0  0  0  0  0  0  0
   -1.6690   -6.6760   27.8850 N   0  0  0  0  0  0  0  0  0  0  0  0
   -5.5920   -9.5320   28.3280 C   0  0  0  0  0  0  0  0  0  0  0  0
   -5.6820   -8.5970   29.3650 C   0  0  0  0  0  0  0  0  0  0  0  0
   -4.5120   -9.5160   27.3980 C   0  0  0  0  0  0  0  0  0  0  0  0
   -3.6410   -7.6400   28.5730 C   0  0  0  0  0  0  0  0  0  0  0  0
   -4.7140   -7.6510   29.4990 C   0  0  0  0  0  0  0  0  0  0  0  0
   -3.5570   -8.5790   27.5180 C   0  0  0  0  0  0  0  0  0  0  0  0
   -0.7710   -5.5850   27.5760 C   0  0  0  0  0  0  0  0  0  0  0  0
   -0.8360   -4.2980   28.1940 C   0  0  0  0  0  0  0  0  0  0  0  0
    0.2180   -5.8340   26.5870 C   0  0  0  0  0  0  0  0  0  0  0  0
    1.0990   -4.8100   26.2480 C   0  0  0  0  0  0  0  0  0  0  0  0
    0.9850   -3.5700   26.8740 C   0  0  0  0  0  0  0  0  0  0  0  0
   -6.5166   -8.6263   30.0561 H   0  0  0  0  0  0  0  0  0  0  0  0
   -4.4619  -10.2514   26.6032 H   0  0  0  0  0  0  0  0  0  0  0  0
   -4.7622   -6.9201   30.2980 H   0  0  0  0  0  0  0  0  0  0  0  0
   -2.7323   -8.5427   26.8154 H   0  0  0  0  0  0  0  0  0  0  0  0
    0.2860   -6.8072   26.1031 H   0  0  0  0  0  0  0  0  0  0  0  0
   -8.0501  -11.9091   29.7330 H   0  0  0  0  0  0  0  0  0  0  0  0
   -6.9049  -10.8250   30.4494 H   0  0  0  0  0  0  0  0  0  0  0  0
   -0.0486   -2.4466   28.2511 H   0  0  0  0  0  0  0  0  0  0  0  0
    1.8716   -4.9770   25.4990 H   0  0  0  0  0  0  0  0  0  0  0  0
   -2.2162   -4.7861   29.2166 H   0  0  0  0  0  0  0  0  0  0  0  0
  1  2  2  0  0  0  0
  1  3  2  0  0  0  0
  1  6  1  0  0  0  0
  1 10  1  0  0  0  0
  4 17  1  0  0  0  0
  4 30  1  0  0  0  0
  5 20  2  0  0  0  0
  6 26  1  0  0  0  0
  6 27  1  0  0  0  0
  7  9  2  0  0  0  0
  7 13  1  0  0  0  0
  8 17  1  0  0  0  0
  8 20  1  0  0  0  0
  8 28  1  0  0  0  0
  9 16  1  0  0  0  0
 10 11  2  0  0  0  0
 10 12  1  0  0  0  0
 11 14  1  0  0  0  0
 11 21  1  0  0  0  0
 12 15  2  0  0  0  0
 12 22  1  0  0  0  0
 13 14  2  0  0  0  0
 13 15  1  0  0  0  0
 14 23  1  0  0  0  0
 15 24  1  0  0  0  0
 16 17  2  0  0  0  0
 16 18  1  0  0  0  0
 18 19  2  0  0  0  0
 18 25  1  0  0  0  0
 19 20  1  0  0  0  0
 19 29  1  0  0  0  0
M  END
> <PUBCHEM_COMPOUND_ID_TYPE>
0

> <PUBCHEM_TOTAL_CHARGE>
0

> <PUBCHEM_SUBSTANCE_ID>
170484988

> <PUBCHEM_SUBSTANCE_VERSION>
1

> <PUBCHEM_EXT_DATASOURCE_NAME>
Shanghai Institute of Organic Chemistry

> <PUBCHEM_EXT_DATASOURCE_REGID>
4ez3

> <PUBCHEM_SUBSTANCE_COMMENT>
PDB code 4ez3, binding affinity data from PDBbind-CN database: IC50=45uM

> <PUBCHEM_SUBSTANCE_SYNONYM>
4ez3

> <PUBCHEM_XREF_EXT_ID>
4ez3

> <PUBCHEM_EXT_DATASOURCE_URL>
http://www.sioc-ccbg.ac.cn/

> <PUBCHEM_EXT_SUBSTANCE_URL>
http://www.pdbbind-cn.org/quickpdb.asp?quickpdb=4ez3

> <PUBCHEM_CID_ASSOCIATIONS>
281416  1

> <PUBCHEM_CONFORMER_ID>
0A2964FC00010001

> <PUBCHEM_COORDINATE_TYPE>
2
3
4

$$$$
170484909
  -OEChem-11262106393D

 41 43  0     0  0  0  0  0  0999 V2000
   25.2120   14.4980   -2.1690 S   0  0  0  0  0  0  0  0  0  0  0  0
   31.7930   19.1210    0.6420 O   0  0  0  0  0  0  0  0  0  0  0  0
   24.4250   13.3740   -2.7560 O   0  0  0  0  0  0  0  0  0  0  0  0
   24.5590   15.1630   -1.0130 O   0  0  0  0  0  0  0  0  0  0  0  0
   26.5780   14.0800   -4.8550 O   0  0  0  0  0  0  0  0  0  0  0  0
   29.7430   18.4570    1.1770 N   0  0  0  0  0  0  0  0  0  0  0  0
   31.0500   17.2970   -0.5700 N   0  0  0  0  0  0  0  0  0  0  0  0
   26.7170   13.9770   -1.7620 N   0  0  0  0  0  0  0  0  0  0  0  0
   28.7760   16.5630   -0.1280 C   0  0  0  0  0  0  0  0  0  0  0  0
   28.5820   17.5480    1.0110 C   0  0  0  0  0  0  0  0  0  0  0  0
   29.9530   16.4520   -0.8690 C   0  0  0  0  0  0  0  0  0  0  0  0
   27.6820   15.7430   -0.4450 C   0  0  0  0  0  0  0  0  0  0  0  0
   27.7490   14.8060   -1.4870 C   0  0  0  0  0  0  0  0  0  0  0  0
   30.0230   15.5360   -1.9290 C   0  0  0  0  0  0  0  0  0  0  0  0
   30.9100   18.3040    0.4400 C   0  0  0  0  0  0  0  0  0  0  0  0
   28.9400   14.7020   -2.2170 C   0  0  0  0  0  0  0  0  0  0  0  0
   25.5520   15.7140   -3.3800 C   0  0  0  0  0  0  0  0  0  0  0  0
   29.6700   19.5550    2.1940 C   0  0  0  0  0  0  0  0  0  0  0  0
   26.2290   15.3730   -4.5680 C   0  0  0  0  0  0  0  0  0  0  0  0
   25.2320   17.0330   -3.0790 C   0  0  0  0  0  0  0  0  0  0  0  0
   26.5080   16.3920   -5.4780 C   0  0  0  0  0  0  0  0  0  0  0  0
   25.4880   18.0280   -4.0040 C   0  0  0  0  0  0  0  0  0  0  0  0
   26.1180   17.7040   -5.1820 C   0  0  0  0  0  0  0  0  0  0  0  0
   27.3250   13.8220   -6.1070 C   0  0  0  0  0  0  0  0  0  0  0  0
   28.4652   16.9785    1.9330 H   0  0  0  0  0  0  0  0  0  0  0  0
   27.7067   18.1569    0.7847 H   0  0  0  0  0  0  0  0  0  0  0  0
   26.7610   15.8361    0.1304 H   0  0  0  0  0  0  0  0  0  0  0  0
   31.9327   17.1895   -1.0697 H   0  0  0  0  0  0  0  0  0  0  0  0
   30.9288   15.4745   -2.5322 H   0  0  0  0  0  0  0  0  0  0  0  0
   29.0223   13.9648   -3.0157 H   0  0  0  0  0  0  0  0  0  0  0  0
   26.8816   12.9715   -1.7142 H   0  0  0  0  0  0  0  0  0  0  0  0
   28.8377   20.2165    1.9535 H   0  0  0  0  0  0  0  0  0  0  0  0
   29.5182   19.1229    3.1831 H   0  0  0  0  0  0  0  0  0  0  0  0
   30.6011   20.1215    2.1826 H   0  0  0  0  0  0  0  0  0  0  0  0
   24.7813   17.2815   -2.1181 H   0  0  0  0  0  0  0  0  0  0  0  0
   27.0250   16.1693   -6.4114 H   0  0  0  0  0  0  0  0  0  0  0  0
   25.1936   19.0578   -3.8015 H   0  0  0  0  0  0  0  0  0  0  0  0
   26.3201   18.4920   -5.9075 H   0  0  0  0  0  0  0  0  0  0  0  0
   26.7289   14.1503   -6.9585 H   0  0  0  0  0  0  0  0  0  0  0  0
   28.2660   14.3718   -6.0870 H   0  0  0  0  0  0  0  0  0  0  0  0
   27.5281   12.7546   -6.1940 H   0  0  0  0  0  0  0  0  0  0  0  0
  1  3  2  0  0  0  0
  1  4  2  0  0  0  0
  1  8  1  0  0  0  0
  1 17  1  0  0  0  0
  2 15  2  0  0  0  0
  5 19  1  0  0  0  0
  5 24  1  0  0  0  0
  6 10  1  0  0  0  0
  6 15  1  0  0  0  0
  6 18  1  0  0  0  0
  7 11  1  0  0  0  0
  7 15  1  0  0  0  0
  7 28  1  0  0  0  0
  8 13  1  0  0  0  0
  8 31  1  0  0  0  0
  9 10  1  0  0  0  0
  9 11  1  0  0  0  0
  9 12  2  0  0  0  0
 10 25  1  0  0  0  0
 10 26  1  0  0  0  0
 11 14  2  0  0  0  0
 12 13  1  0  0  0  0
 12 27  1  0  0  0  0
 13 16  2  0  0  0  0
 14 16  1  0  0  0  0
 14 29  1  0  0  0  0
 16 30  1  0  0  0  0
 17 19  2  0  0  0  0
 17 20  1  0  0  0  0
 18 32  1  0  0  0  0
 18 33  1  0  0  0  0
 18 34  1  0  0  0  0
 19 21  1  0  0  0  0
 20 22  2  0  0  0  0
 20 35  1  0  0  0  0
 21 23  2  0  0  0  0
 21 36  1  0  0  0  0
 22 23  1  0  0  0  0
 22 37  1  0  0  0  0
 23 38  1  0  0  0  0
 24 39  1  0  0  0  0
 24 40  1  0  0  0  0
 24 41  1  0  0  0  0
M  END
> <PUBCHEM_COMPOUND_ID_TYPE>
0

> <PUBCHEM_TOTAL_CHARGE>
0

> <PUBCHEM_SUBSTANCE_ID>
170484909

> <PUBCHEM_SUBSTANCE_VERSION>
1

> <PUBCHEM_EXT_DATASOURCE_NAME>
Shanghai Institute of Organic Chemistry

> <PUBCHEM_EXT_DATASOURCE_REGID>
4e96

> <PUBCHEM_SUBSTANCE_COMMENT>
PDB code 4e96, binding affinity data from PDBbind-CN database: IC50=0.22uM

> <PUBCHEM_SUBSTANCE_SYNONYM>
4e96

> <PUBCHEM_XREF_EXT_ID>
4e96

> <PUBCHEM_EXT_DATASOURCE_URL>
http://www.sioc-ccbg.ac.cn/

> <PUBCHEM_EXT_SUBSTANCE_URL>
http://www.pdbbind-cn.org/quickpdb.asp?quickpdb=4e96

> <PUBCHEM_CID_ASSOCIATIONS>
71271629  1

> <PUBCHEM_CONFORMER_ID>
0A2964AD00010001

> <PUBCHEM_COORDINATE_TYPE>
2
3
4

$$$$
170484908
  -OEChem-11262106393D

 42 45  0     0  0  0  0  0  0999 V2000
  -10.5330    7.1430   22.4250 Cl  0  0  0  0  0  0  0  0  0  0  0  0
  -14.0570    3.0480   21.2320 Cl  0  0  0  0  0  0  0  0  0  0  0  0
  -14.3540    1.3940   24.7940 S   0  0  0  0  0  0  0  0  0  0  0  0
  -19.3230    3.5830   22.9480 O   0  0  0  0  0  0  0  0  0  0  0  0
  -22.1070    3.6450   20.6790 O   0  5  0  0  0  0  0  0  0  0  0  0
  -20.7160    5.1800   21.4200 O   0  0  0  0  0  0  0  0  0  0  0  0
  -15.0800    3.7090   25.4300 N   0  0  0  0  0  0  0  0  0  0  0  0
  -11.6760    2.3050   25.5540 N   0  0  0  0  0  0  0  0  0  0  0  0
  -12.0000    3.7190   23.6710 N   0  0  0  0  0  0  0  0  0  0  0  0
  -10.0280    2.4890   23.9110 N   0  0  0  0  0  0  0  0  0  0  0  0
   -9.5520    3.0210   22.7060 N   0  0  0  0  0  0  0  0  0  0  0  0
  -16.0850    3.2220   24.6310 C   0  0  0  0  0  0  0  0  0  0  0  0
  -15.7720    1.9300   24.2270 C   0  0  0  0  0  0  0  0  0  0  0  0
  -14.0550    2.8250   25.6090 C   0  0  0  0  0  0  0  0  0  0  0  0
  -12.7450    2.8740   26.3650 C   0  0  0  0  0  0  0  0  0  0  0  0
  -17.2870    3.7760   24.1960 C   0  0  0  0  0  0  0  0  0  0  0  0
  -16.6140    1.1830   23.4140 C   0  0  0  0  0  0  0  0  0  0  0  0
  -18.1430    3.0380   23.3790 C   0  0  0  0  0  0  0  0  0  0  0  0
  -17.8090    1.7460   22.9850 C   0  0  0  0  0  0  0  0  0  0  0  0
  -11.2420    2.8480   24.3840 C   0  0  0  0  0  0  0  0  0  0  0  0
  -12.4010    5.2080   21.7390 C   0  0  0  0  0  0  0  0  0  0  0  0
  -11.5530    4.2500   22.5070 C   0  0  0  0  0  0  0  0  0  0  0  0
  -12.0270    6.5410   21.6300 C   0  0  0  0  0  0  0  0  0  0  0  0
  -13.5600    4.7690   21.1130 C   0  0  0  0  0  0  0  0  0  0  0  0
  -10.3050    3.8830   22.0160 C   0  0  0  0  0  0  0  0  0  0  0  0
  -12.8170    7.4320   20.9120 C   0  0  0  0  0  0  0  0  0  0  0  0
  -14.3480    5.6610   20.3920 C   0  0  0  0  0  0  0  0  0  0  0  0
  -13.9790    6.9950   20.2890 C   0  0  0  0  0  0  0  0  0  0  0  0
  -20.0690    2.9590   21.9050 C   0  0  0  0  0  0  0  0  0  0  0  0
  -20.9930    3.9970   21.3160 C   0  0  0  0  0  0  0  0  0  0  0  0
  -12.5045    3.9117   26.5962 H   0  0  0  0  0  0  0  0  0  0  0  0
  -12.8414    2.2972   27.2848 H   0  0  0  0  0  0  0  0  0  0  0  0
  -17.5589    4.7883   24.4948 H   0  0  0  0  0  0  0  0  0  0  0  0
  -16.3413    0.1703   23.1170 H   0  0  0  0  0  0  0  0  0  0  0  0
  -11.2270    1.4501   25.8825 H   0  0  0  0  0  0  0  0  0  0  0  0
  -18.4821    1.1783   22.3426 H   0  0  0  0  0  0  0  0  0  0  0  0
   -9.9431    4.2957   21.0743 H   0  0  0  0  0  0  0  0  0  0  0  0
  -12.5229    8.4789   20.8377 H   0  0  0  0  0  0  0  0  0  0  0  0
  -15.2587    5.3106   19.9062 H   0  0  0  0  0  0  0  0  0  0  0  0
  -14.5959    7.6938   19.7240 H   0  0  0  0  0  0  0  0  0  0  0  0
  -19.3977    2.5709   21.1389 H   0  0  0  0  0  0  0  0  0  0  0  0
  -20.6432    2.1206   22.2992 H   0  0  0  0  0  0  0  0  0  0  0  0
  1 23  1  0  0  0  0
  2 24  1  0  0  0  0
  3 13  1  0  0  0  0
  3 14  1  0  0  0  0
  4 18  1  0  0  0  0
  4 29  1  0  0  0  0
  5 30  1  0  0  0  0
  6 30  2  0  0  0  0
  7 12  1  0  0  0  0
  7 14  2  0  0  0  0
  8 15  1  0  0  0  0
  8 20  1  0  0  0  0
  8 35  1  0  0  0  0
  9 20  1  0  0  0  0
  9 22  2  0  0  0  0
 10 11  1  0  0  0  0
 10 20  2  0  0  0  0
 11 25  2  0  0  0  0
 12 13  2  0  0  0  0
 12 16  1  0  0  0  0
 13 17  1  0  0  0  0
 14 15  1  0  0  0  0
 15 31  1  0  0  0  0
 15 32  1  0  0  0  0
 16 18  2  0  0  0  0
 16 33  1  0  0  0  0
 17 19  2  0  0  0  0
 17 34  1  0  0  0  0
 18 19  1  0  0  0  0
 19 36  1  0  0  0  0
 21 22  1  0  0  0  0
 21 23  2  0  0  0  0
 21 24  1  0  0  0  0
 22 25  1  0  0  0  0
 23 26  1  0  0  0  0
 24 27  2  0  0  0  0
 25 37  1  0  0  0  0
 26 28  2  0  0  0  0
 26 38  1  0  0  0  0
 27 28  1  0  0  0  0
 27 39  1  0  0  0  0
 28 40  1  0  0  0  0
 29 30  1  0  0  0  0
 29 41  1  0  0  0  0
 29 42  1  0  0  0  0
M  CHG  1   5  -1
M  END
> <PUBCHEM_COMPOUND_ID_TYPE>
0

> <PUBCHEM_TOTAL_CHARGE>
-1

> <PUBCHEM_SUBSTANCE_ID>
170484908

> <PUBCHEM_SUBSTANCE_VERSION>
1

> <PUBCHEM_EXT_DATASOURCE_NAME>
Shanghai Institute of Organic Chemistry

> <PUBCHEM_EXT_DATASOURCE_REGID>
4e8z

> <PUBCHEM_SUBSTANCE_COMMENT>
PDB code 4e8z, binding affinity data from PDBbind-CN database: IC50=0.23uM

> <PUBCHEM_SUBSTANCE_SYNONYM>
4e8z

> <PUBCHEM_XREF_EXT_ID>
4e8z

> <PUBCHEM_EXT_DATASOURCE_URL>
http://www.sioc-ccbg.ac.cn/

> <PUBCHEM_EXT_SUBSTANCE_URL>
http://www.pdbbind-cn.org/quickpdb.asp?quickpdb=4e8z

> <PUBCHEM_CID_ASSOCIATIONS>
72200893  1
68610299  2

> <PUBCHEM_CONFORMER_ID>
0A2964AC00010001

> <PUBCHEM_COORDINATE_TYPE>
2
3
4

$$$$
170484906
  -OEChem-11262106393D

 50 53  0     0  0  0  0  0  0999 V2000
   19.7210  -36.6040  -25.9050 S   0  0  0  0  0  0  0  0  0  0  0  0
   15.0940  -38.8210  -23.4080 O   0  0  0  0  0  0  0  0  0  0  0  0
   19.9000  -39.1140  -22.2900 O   0  0  0  0  0  0  0  0  0  0  0  0
   23.4030  -42.2820  -22.7360 O   0  0  0  0  0  0  0  0  0  0  0  0
   13.1860  -41.6630  -22.5900 O   0  5  0  0  0  0  0  0  0  0  0  0
   12.6570  -39.5930  -23.1230 O   0  0  0  0  0  0  0  0  0  0  0  0
   19.1210  -39.0220  -26.2040 N   0  0  0  0  0  0  0  0  0  0  0  0
   22.2430  -39.1050  -26.8930 N   0  0  0  0  0  0  0  0  0  0  0  0
   22.0210  -39.8330  -24.7110 N   0  0  0  0  0  0  0  0  0  0  0  0
   23.5630  -38.1520  -25.1970 N   0  0  0  0  0  0  0  0  0  0  0  0
   23.9200  -38.0940  -23.8470 N   0  0  0  0  0  0  0  0  0  0  0  0
   18.1470  -38.4970  -25.3880 C   0  0  0  0  0  0  0  0  0  0  0  0
   18.3970  -37.1510  -25.1610 C   0  0  0  0  0  0  0  0  0  0  0  0
   20.0620  -38.1020  -26.5690 C   0  0  0  0  0  0  0  0  0  0  0  0
   21.3090  -38.1320  -27.4240 C   0  0  0  0  0  0  0  0  0  0  0  0
   21.6390  -40.7080  -22.4900 C   0  0  0  0  0  0  0  0  0  0  0  0
   17.0250  -39.0580  -24.7900 C   0  0  0  0  0  0  0  0  0  0  0  0
   17.5810  -36.3520  -24.3730 C   0  0  0  0  0  0  0  0  0  0  0  0
   16.1970  -38.2720  -23.9930 C   0  0  0  0  0  0  0  0  0  0  0  0
   22.3500  -39.7910  -23.4080 C   0  0  0  0  0  0  0  0  0  0  0  0
   20.4240  -40.3380  -21.9630 C   0  0  0  0  0  0  0  0  0  0  0  0
   22.1900  -41.9300  -22.1770 C   0  0  0  0  0  0  0  0  0  0  0  0
   16.4660  -36.9250  -23.7860 C   0  0  0  0  0  0  0  0  0  0  0  0
   22.6150  -39.0190  -25.6010 C   0  0  0  0  0  0  0  0  0  0  0  0
   19.7460  -41.1980  -21.1080 C   0  0  0  0  0  0  0  0  0  0  0  0
   21.5180  -42.8050  -21.3290 C   0  0  0  0  0  0  0  0  0  0  0  0
   20.2950  -42.4340  -20.7880 C   0  0  0  0  0  0  0  0  0  0  0  0
   23.3240  -38.9030  -22.9590 C   0  0  0  0  0  0  0  0  0  0  0  0
   14.9190  -40.2340  -23.3820 C   0  0  0  0  0  0  0  0  0  0  0  0
   18.7490  -38.6060  -21.6020 C   0  0  0  0  0  0  0  0  0  0  0  0
   24.4970  -42.7410  -21.9200 C   0  0  0  0  0  0  0  0  0  0  0  0
   13.4870  -40.5200  -23.0010 C   0  0  0  0  0  0  0  0  0  0  0  0
   21.7735  -37.1459  -27.4197 H   0  0  0  0  0  0  0  0  0  0  0  0
   21.0410  -38.4080  -28.4438 H   0  0  0  0  0  0  0  0  0  0  0  0
   16.7935  -40.1118  -24.9447 H   0  0  0  0  0  0  0  0  0  0  0  0
   17.8125  -35.2979  -24.2198 H   0  0  0  0  0  0  0  0  0  0  0  0
   22.6136  -39.8448  -27.4895 H   0  0  0  0  0  0  0  0  0  0  0  0
   15.8029  -36.3227  -23.1649 H   0  0  0  0  0  0  0  0  0  0  0  0
   18.7841  -40.9035  -20.6884 H   0  0  0  0  0  0  0  0  0  0  0  0
   21.9500  -43.7770  -21.0908 H   0  0  0  0  0  0  0  0  0  0  0  0
   19.7671  -43.1094  -20.1147 H   0  0  0  0  0  0  0  0  0  0  0  0
   23.5972  -38.8661  -21.9044 H   0  0  0  0  0  0  0  0  0  0  0  0
   15.1401  -40.6588  -24.3612 H   0  0  0  0  0  0  0  0  0  0  0  0
   15.5983  -40.6842  -22.6581 H   0  0  0  0  0  0  0  0  0  0  0  0
   17.9125  -39.2908  -21.7412 H   0  0  0  0  0  0  0  0  0  0  0  0
   18.9732  -38.5156  -20.5391 H   0  0  0  0  0  0  0  0  0  0  0  0
   18.4895  -37.6268  -22.0045 H   0  0  0  0  0  0  0  0  0  0  0  0
   24.7659  -41.9639  -21.2045 H   0  0  0  0  0  0  0  0  0  0  0  0
   24.1963  -43.6414  -21.3844 H   0  0  0  0  0  0  0  0  0  0  0  0
   25.3540  -42.9639  -22.5555 H   0  0  0  0  0  0  0  0  0  0  0  0
  1 13  1  0  0  0  0
  1 14  1  0  0  0  0
  2 19  1  0  0  0  0
  2 29  1  0  0  0  0
  3 21  1  0  0  0  0
  3 30  1  0  0  0  0
  4 22  1  0  0  0  0
  4 31  1  0  0  0  0
  5 32  1  0  0  0  0
  6 32  2  0  0  0  0
  7 12  1  0  0  0  0
  7 14  2  0  0  0  0
  8 15  1  0  0  0  0
  8 24  1  0  0  0  0
  8 37  1  0  0  0  0
  9 20  1  0  0  0  0
  9 24  2  0  0  0  0
 10 11  2  0  0  0  0
 10 24  1  0  0  0  0
 11 28  1  0  0  0  0
 12 13  1  0  0  0  0
 12 17  2  0  0  0  0
 13 18  2  0  0  0  0
 14 15  1  0  0  0  0
 15 33  1  0  0  0  0
 15 34  1  0  0  0  0
 16 20  1  0  0  0  0
 16 21  2  0  0  0  0
 16 22  1  0  0  0  0
 17 19  1  0  0  0  0
 17 35  1  0  0  0  0
 18 23  1  0  0  0  0
 18 36  1  0  0  0  0
 19 23  2  0  0  0  0
 20 28  2  0  0  0  0
 21 25  1  0  0  0  0
 22 26  2  0  0  0  0
 23 38  1  0  0  0  0
 25 27  2  0  0  0  0
 25 39  1  0  0  0  0
 26 27  1  0  0  0  0
 26 40  1  0  0  0  0
 27 41  1  0  0  0  0
 28 42  1  0  0  0  0
 29 32  1  0  0  0  0
 29 43  1  0  0  0  0
 29 44  1  0  0  0  0
 30 45  1  0  0  0  0
 30 46  1  0  0  0  0
 30 47  1  0  0  0  0
 31 48  1  0  0  0  0
 31 49  1  0  0  0  0
 31 50  1  0  0  0  0
M  CHG  1   5  -1
M  END
> <PUBCHEM_COMPOUND_ID_TYPE>
0

> <PUBCHEM_TOTAL_CHARGE>
-1

> <PUBCHEM_SUBSTANCE_ID>
170484906

> <PUBCHEM_SUBSTANCE_VERSION>
1

> <PUBCHEM_EXT_DATASOURCE_NAME>
Shanghai Institute of Organic Chemistry

> <PUBCHEM_EXT_DATASOURCE_REGID>
4e8w

> <PUBCHEM_SUBSTANCE_COMMENT>
PDB code 4e8w, binding affinity data from PDBbind-CN database: IC50=0.81uM

> <PUBCHEM_SUBSTANCE_SYNONYM>
4e8w

> <PUBCHEM_XREF_EXT_ID>
4e8w

> <PUBCHEM_EXT_DATASOURCE_URL>
http://www.sioc-ccbg.ac.cn/

> <PUBCHEM_EXT_SUBSTANCE_URL>
http://www.pdbbind-cn.org/quickpdb.asp?quickpdb=4e8w

> <PUBCHEM_CID_ASSOCIATIONS>
72200892  1
70679459  2

> <PUBCHEM_CONFORMER_ID>
0A2964AA00010001

> <PUBCHEM_COORDINATE_TYPE>
2
3
4

$$$$
170484896
  -OEChem-11262106393D

 52 54  0     0  0  0  0  0  0999 V2000
  -49.3350   -9.9390   27.9780 Cl  0  0  0  0  0  0  0  0  0  0  0  0
  -49.7960  -15.7750   23.0370 O   0  0  0  0  0  0  0  0  0  0  0  0
  -48.0340  -17.0940   23.7170 O   0  0  0  0  0  0  0  0  0  0  0  0
  -46.5580  -18.3810   25.5820 O   0  5  0  0  0  0  0  0  0  0  0  0
  -47.6260  -17.3760   27.1970 O   0  0  0  0  0  0  0  0  0  0  0  0
  -54.0600  -15.4050   24.9960 N   0  3  0  0  0  0  0  0  0  0  0  0
  -51.5860  -15.3760   24.4710 C   0  0  0  0  0  0  0  0  0  0  0  0
  -51.9140  -15.6400   25.9310 C   0  0  0  0  0  0  0  0  0  0  0  0
  -52.4130  -16.2720   23.5620 C   0  0  0  0  0  0  0  0  0  0  0  0
  -53.3250  -15.1620   26.2270 C   0  0  0  0  0  0  0  0  0  0  0  0
  -53.7620  -16.5720   24.1870 C   0  0  0  0  0  0  0  0  0  0  0  0
  -51.8590  -13.9210   24.1110 C   0  0  0  0  0  0  0  0  0  0  0  0
  -50.1490  -15.7170   24.2040 C   0  0  0  0  0  0  0  0  0  0  0  0
  -55.1090  -14.4960   24.5790 C   0  0  0  0  0  0  0  0  0  0  0  0
  -51.2190  -12.9450   25.0730 C   0  0  0  0  0  0  0  0  0  0  0  0
  -49.2020  -15.9960   25.3580 C   0  0  0  0  0  0  0  0  0  0  0  0
  -56.2120  -15.3470   24.0080 C   0  0  0  0  0  0  0  0  0  0  0  0
  -52.0180  -12.2060   25.9330 C   0  0  0  0  0  0  0  0  0  0  0  0
  -49.8410  -12.7630   25.0890 C   0  0  0  0  0  0  0  0  0  0  0  0
  -48.2510  -16.8710   24.9990 C   0  0  0  0  0  0  0  0  0  0  0  0
  -55.9240  -16.2110   22.9650 C   0  0  0  0  0  0  0  0  0  0  0  0
  -57.4970  -15.2710   24.5300 C   0  0  0  0  0  0  0  0  0  0  0  0
  -51.4430  -11.2970   26.8140 C   0  0  0  0  0  0  0  0  0  0  0  0
  -49.2650  -11.8530   25.9700 C   0  0  0  0  0  0  0  0  0  0  0  0
  -50.0660  -11.1180   26.8350 C   0  0  0  0  0  0  0  0  0  0  0  0
  -47.4350  -17.5820   25.9830 C   0  0  0  0  0  0  0  0  0  0  0  0
  -56.9350  -16.9980   22.4360 C   0  0  0  0  0  0  0  0  0  0  0  0
  -58.5090  -16.0610   23.9990 C   0  0  0  0  0  0  0  0  0  0  0  0
  -58.2240  -16.9250   22.9520 C   0  0  0  0  0  0  0  0  0  0  0  0
  -51.2080  -15.1035   26.5649 H   0  0  0  0  0  0  0  0  0  0  0  0
  -51.8427  -16.7089   26.1320 H   0  0  0  0  0  0  0  0  0  0  0  0
  -51.8785  -17.2099   23.4110 H   0  0  0  0  0  0  0  0  0  0  0  0
  -52.5708  -15.7607   22.6124 H   0  0  0  0  0  0  0  0  0  0  0  0
  -53.3474  -14.1108   26.5145 H   0  0  0  0  0  0  0  0  0  0  0  0
  -53.7642  -15.6880   27.0747 H   0  0  0  0  0  0  0  0  0  0  0  0
  -53.7408  -17.4850   24.7820 H   0  0  0  0  0  0  0  0  0  0  0  0
  -54.5288  -16.7513   23.4334 H   0  0  0  0  0  0  0  0  0  0  0  0
  -51.4373  -13.7384   23.1226 H   0  0  0  0  0  0  0  0  0  0  0  0
  -52.9373  -13.7660   24.1485 H   0  0  0  0  0  0  0  0  0  0  0  0
  -54.7392  -13.7881   23.8373 H   0  0  0  0  0  0  0  0  0  0  0  0
  -55.4692  -13.9042   25.4205 H   0  0  0  0  0  0  0  0  0  0  0  0
  -49.7730  -16.4197   26.1842 H   0  0  0  0  0  0  0  0  0  0  0  0
  -48.7242  -15.0614   25.6519 H   0  0  0  0  0  0  0  0  0  0  0  0
  -53.0998  -12.3383   25.9181 H   0  0  0  0  0  0  0  0  0  0  0  0
  -49.2096  -13.3350   24.4092 H   0  0  0  0  0  0  0  0  0  0  0  0
  -54.9123  -16.2717   22.5639 H   0  0  0  0  0  0  0  0  0  0  0  0
  -57.7112  -14.5922   25.3555 H   0  0  0  0  0  0  0  0  0  0  0  0
  -52.0755  -10.7226   27.4909 H   0  0  0  0  0  0  0  0  0  0  0  0
  -48.1836  -11.7166   25.9815 H   0  0  0  0  0  0  0  0  0  0  0  0
  -56.7185  -17.6773   21.6116 H   0  0  0  0  0  0  0  0  0  0  0  0
  -59.5199  -16.0022   24.4024 H   0  0  0  0  0  0  0  0  0  0  0  0
  -59.0132  -17.5488   22.5324 H   0  0  0  0  0  0  0  0  0  0  0  0
  1 25  1  0  0  0  0
  2 13  2  0  0  0  0
  3 20  2  0  0  0  0
  4 26  1  0  0  0  0
  5 26  2  0  0  0  0
  6 10  1  0  0  0  0
  6 11  1  0  0  0  0
  6 14  1  0  0  0  0
  7  8  1  0  0  0  0
  7  9  1  0  0  0  0
  7 12  1  0  0  0  0
  7 13  1  0  0  0  0
  8 10  1  0  0  0  0
  8 30  1  0  0  0  0
  8 31  1  0  0  0  0
  9 11  1  0  0  0  0
  9 32  1  0  0  0  0
  9 33  1  0  0  0  0
 10 34  1  0  0  0  0
 10 35  1  0  0  0  0
 11 36  1  0  0  0  0
 11 37  1  0  0  0  0
 12 15  1  0  0  0  0
 12 38  1  0  0  0  0
 12 39  1  0  0  0  0
 13 16  1  0  0  0  0
 14 17  1  0  0  0  0
 14 40  1  0  0  0  0
 14 41  1  0  0  0  0
 15 18  2  0  0  0  0
 15 19  1  0  0  0  0
 16 20  1  0  0  0  0
 16 42  1  0  0  0  0
 16 43  1  0  0  0  0
 17 21  2  0  0  0  0
 17 22  1  0  0  0  0
 18 23  1  0  0  0  0
 18 44  1  0  0  0  0
 19 24  2  0  0  0  0
 19 45  1  0  0  0  0
 20 26  1  0  0  0  0
 21 27  1  0  0  0  0
 21 46  1  0  0  0  0
 22 28  2  0  0  0  0
 22 47  1  0  0  0  0
 23 25  2  0  0  0  0
 23 48  1  0  0  0  0
 24 25  1  0  0  0  0
 24 49  1  0  0  0  0
 27 29  2  0  0  0  0
 27 50  1  0  0  0  0
 28 29  1  0  0  0  0
 28 51  1  0  0  0  0
 29 52  1  0  0  0  0
M  CHG  2   4  -1   6   1
M  END
> <PUBCHEM_COMPOUND_ID_TYPE>
0

> <PUBCHEM_TOTAL_CHARGE>
0

> <PUBCHEM_SUBSTANCE_ID>
170484896

> <PUBCHEM_SUBSTANCE_VERSION>
1

> <PUBCHEM_EXT_DATASOURCE_NAME>
Shanghai Institute of Organic Chemistry

> <PUBCHEM_EXT_DATASOURCE_REGID>
4e5h

> <PUBCHEM_SUBSTANCE_COMMENT>
PDB code 4e5h, binding affinity data from PDBbind-CN database: IC50=0.43uM

> <PUBCHEM_SUBSTANCE_SYNONYM>
4e5h

> <PUBCHEM_XREF_EXT_ID>
4e5h

> <PUBCHEM_EXT_DATASOURCE_URL>
http://www.sioc-ccbg.ac.cn/

> <PUBCHEM_EXT_SUBSTANCE_URL>
http://www.pdbbind-cn.org/quickpdb.asp?quickpdb=4e5h

> <PUBCHEM_CID_ASSOCIATIONS>
72200884  1
15340925  2

> <PUBCHEM_CONFORMER_ID>
0A2964A000010001

> <PUBCHEM_COORDINATE_TYPE>
2
3
4

$$$$
170484895
  -OEChem-11262106393D

 21 21  0     0  0  0  0  0  0999 V2000
  -11.0060  -16.7600  -22.3050 O   0  0  0  0  0  0  0  0  0  0  0  0
  -13.0550  -18.3250  -22.6650 O   0  0  0  0  0  0  0  0  0  0  0  0
  -13.6390  -18.4010  -26.1400 O   0  5  0  0  0  0  0  0  0  0  0  0
  -14.6860  -19.4090  -24.4950 O   0  0  0  0  0  0  0  0  0  0  0  0
   -9.9120  -15.6960  -24.1160 C   0  0  0  0  0  0  0  0  0  0  0  0
   -9.8720  -15.5180  -25.5080 C   0  0  0  0  0  0  0  0  0  0  0  0
   -8.9810  -15.0470  -23.2950 C   0  0  0  0  0  0  0  0  0  0  0  0
  -10.9600  -16.5860  -23.5090 C   0  0  0  0  0  0  0  0  0  0  0  0
   -8.9070  -14.6960  -26.0790 C   0  0  0  0  0  0  0  0  0  0  0  0
   -8.0100  -14.2240  -23.8690 C   0  0  0  0  0  0  0  0  0  0  0  0
   -7.9760  -14.0490  -25.2560 C   0  0  0  0  0  0  0  0  0  0  0  0
  -11.9240  -17.2480  -24.3980 C   0  0  0  0  0  0  0  0  0  0  0  0
  -12.8910  -18.0560  -23.9550 C   0  0  0  0  0  0  0  0  0  0  0  0
  -13.7900  -18.6560  -24.9240 C   0  0  0  0  0  0  0  0  0  0  0  0
  -10.5989  -16.0252  -26.1423 H   0  0  0  0  0  0  0  0  0  0  0  0
   -9.0143  -15.1837  -22.2141 H   0  0  0  0  0  0  0  0  0  0  0  0
   -8.8750  -14.5559  -27.1595 H   0  0  0  0  0  0  0  0  0  0  0  0
   -7.2797  -13.7187  -23.2370 H   0  0  0  0  0  0  0  0  0  0  0  0
   -7.2185  -13.4036  -25.7007 H   0  0  0  0  0  0  0  0  0  0  0  0
  -11.8465  -17.0714  -25.4708 H   0  0  0  0  0  0  0  0  0  0  0  0
  -12.3893  -17.8581  -22.1548 H   0  0  0  0  0  0  0  0  0  0  0  0
  1  8  2  0  0  0  0
  2 13  1  0  0  0  0
  2 21  1  0  0  0  0
  3 14  1  0  0  0  0
  4 14  2  0  0  0  0
  5  6  2  0  0  0  0
  5  7  1  0  0  0  0
  5  8  1  0  0  0  0
  6  9  1  0  0  0  0
  6 15  1  0  0  0  0
  7 10  2  0  0  0  0
  7 16  1  0  0  0  0
  8 12  1  0  0  0  0
  9 11  2  0  0  0  0
  9 17  1  0  0  0  0
 10 11  1  0  0  0  0
 10 18  1  0  0  0  0
 11 19  1  0  0  0  0
 12 13  2  0  0  0  0
 12 20  1  0  0  0  0
 13 14  1  0  0  0  0
M  CHG  1   3  -1
M  END
> <PUBCHEM_COMPOUND_ID_TYPE>
0

> <PUBCHEM_TOTAL_CHARGE>
-1

> <PUBCHEM_SUBSTANCE_ID>
170484895

> <PUBCHEM_SUBSTANCE_VERSION>
1

> <PUBCHEM_EXT_DATASOURCE_NAME>
Shanghai Institute of Organic Chemistry

> <PUBCHEM_EXT_DATASOURCE_REGID>
4e5g

> <PUBCHEM_SUBSTANCE_COMMENT>
PDB code 4e5g, binding affinity data from PDBbind-CN database: IC50=21.3uM

> <PUBCHEM_SUBSTANCE_SYNONYM>
4e5g

> <PUBCHEM_XREF_EXT_ID>
4e5g

> <PUBCHEM_EXT_DATASOURCE_URL>
http://www.sioc-ccbg.ac.cn/

> <PUBCHEM_EXT_SUBSTANCE_URL>
http://www.pdbbind-cn.org/quickpdb.asp?quickpdb=4e5g

> <PUBCHEM_CID_ASSOCIATIONS>
54736916  1
5496307  2

> <PUBCHEM_CONFORMER_ID>
0A29649F00010001

> <PUBCHEM_COORDINATE_TYPE>
2
3
4

$$$$
170484894
  -OEChem-11262106393D

 19 20  0     0  0  0  0  0  0999 V2000
  -11.1160  -16.8650  -22.1690 O   0  0  0  0  0  0  0  0  0  0  0  0
  -14.3240  -19.1740  -24.5220 O   0  0  0  0  0  0  0  0  0  0  0  0
  -13.1410  -18.5760  -22.2640 O   0  0  0  0  0  0  0  0  0  0  0  0
  -12.7390  -18.0390  -23.3040 N   0  3  0  0  0  0  0  0  0  0  0  0
  -11.7970  -16.7940  -25.7320 C   0  0  0  0  0  0  0  0  0  0  0  0
  -11.1080  -16.4340  -24.4950 C   0  0  0  0  0  0  0  0  0  0  0  0
  -12.8710  -17.7040  -25.7730 C   0  0  0  0  0  0  0  0  0  0  0  0
  -11.6550  -17.1240  -23.2640 C   0  0  0  0  0  0  0  0  0  0  0  0
  -13.3700  -18.3580  -24.5190 C   0  0  0  0  0  0  0  0  0  0  0  0
  -11.3460  -16.1920  -26.9120 C   0  0  0  0  0  0  0  0  0  0  0  0
  -13.4770  -17.9940  -26.9990 C   0  0  0  0  0  0  0  0  0  0  0  0
  -11.9560  -16.4840  -28.1360 C   0  0  0  0  0  0  0  0  0  0  0  0
  -13.0260  -17.3870  -28.1790 C   0  0  0  0  0  0  0  0  0  0  0  0
  -10.0464  -16.7025  -24.5994 H   0  0  0  0  0  0  0  0  0  0  0  0
  -11.1990  -15.3472  -24.3519 H   0  0  0  0  0  0  0  0  0  0  0  0
  -10.5174  -15.4939  -26.8770 H   0  0  0  0  0  0  0  0  0  0  0  0
  -14.3032  -18.6947  -27.0373 H   0  0  0  0  0  0  0  0  0  0  0  0
  -11.6027  -16.0140  -29.0467 H   0  0  0  0  0  0  0  0  0  0  0  0
  -13.5048  -17.6161  -29.1242 H   0  0  0  0  0  0  0  0  0  0  0  0
  1  8  2  0  0  0  0
  2  9  2  0  0  0  0
  3  4  2  0  0  0  0
  4  8  1  0  0  0  0
  4  9  1  0  0  0  0
  5  6  1  0  0  0  0
  5  7  1  0  0  0  0
  5 10  2  0  0  0  0
  6  8  1  0  0  0  0
  6 14  1  0  0  0  0
  6 15  1  0  0  0  0
  7  9  1  0  0  0  0
  7 11  2  0  0  0  0
 10 12  1  0  0  0  0
 10 16  1  0  0  0  0
 11 13  1  0  0  0  0
 11 17  1  0  0  0  0
 12 13  2  0  0  0  0
 12 18  1  0  0  0  0
 13 19  1  0  0  0  0
M  CHG  1   4   1
M  END
> <PUBCHEM_COMPOUND_ID_TYPE>
0

> <PUBCHEM_TOTAL_CHARGE>
1

> <PUBCHEM_SUBSTANCE_ID>
170484894

> <PUBCHEM_SUBSTANCE_VERSION>
1

> <PUBCHEM_EXT_DATASOURCE_NAME>
Shanghai Institute of Organic Chemistry

> <PUBCHEM_EXT_DATASOURCE_REGID>
4e5f

> <PUBCHEM_SUBSTANCE_COMMENT>
PDB code 4e5f, binding affinity data from PDBbind-CN database: IC50=15.0uM

> <PUBCHEM_SUBSTANCE_SYNONYM>
4e5f

> <PUBCHEM_XREF_EXT_ID>
4e5f

> <PUBCHEM_EXT_DATASOURCE_URL>
http://www.sioc-ccbg.ac.cn/

> <PUBCHEM_EXT_SUBSTANCE_URL>
http://www.pdbbind-cn.org/quickpdb.asp?quickpdb=4e5f

> <PUBCHEM_CID_ASSOCIATIONS>
72200883  1

> <PUBCHEM_CONFORMER_ID>
0A29649E00010001

> <PUBCHEM_COORDINATE_TYPE>
2
3
4

$$$$
170484893
  -OEChem-11262106393D

 55 57  0     0  0  0  0  0  0999 V2000
   11.5470  -31.1830   -6.1770 S   0  0  0  0  0  0  0  0  0  0  0  0
   14.0290  -27.7280   -5.2060 F   0  0  0  0  0  0  0  0  0  0  0  0
   14.0100  -28.7400   -0.5440 F   0  0  0  0  0  0  0  0  0  0  0  0
   10.4400  -31.4630   -5.2510 O   0  0  0  0  0  0  0  0  0  0  0  0
   11.2220  -31.1270   -7.6090 O   0  0  0  0  0  0  0  0  0  0  0  0
   13.1320  -25.5660   -2.8790 O   0  0  0  0  0  0  0  0  0  0  0  0
   16.7840  -19.3940   -3.5530 O   0  0  0  0  0  0  0  0  0  0  0  0
   15.1670  -24.6770   -2.4030 N   0  0  0  0  0  0  0  0  0  0  0  0
   12.4530  -29.9340   -5.6980 N   0  0  0  0  0  0  0  0  0  0  0  0
   17.3620  -23.7350   -1.8970 N   0  0  0  0  0  0  0  0  0  0  0  0
   19.4610  -22.8870   -1.4190 N   0  0  0  0  0  0  0  0  0  0  0  0
   19.2610  -25.1770   -1.6080 N   0  0  0  0  0  0  0  0  0  0  0  0
   14.8850  -27.0450   -2.6190 C   0  0  0  0  0  0  0  0  0  0  0  0
   14.0370  -28.2120   -2.8720 C   0  0  0  0  0  0  0  0  0  0  0  0
   12.7350  -32.5770   -5.9850 C   0  0  0  0  0  0  0  0  0  0  0  0
   16.5700  -24.8030   -2.1240 C   0  0  0  0  0  0  0  0  0  0  0  0
   17.1170  -26.0880   -2.1010 C   0  0  0  0  0  0  0  0  0  0  0  0
   12.8300  -29.6410   -4.4340 C   0  0  0  0  0  0  0  0  0  0  0  0
   16.2570  -27.2330   -2.3510 C   0  0  0  0  0  0  0  0  0  0  0  0
   14.3290  -25.7420   -2.6450 C   0  0  0  0  0  0  0  0  0  0  0  0
   13.6360  -28.5170   -4.1810 C   0  0  0  0  0  0  0  0  0  0  0  0
   13.5690  -32.8040   -7.2490 C   0  0  0  0  0  0  0  0  0  0  0  0
   13.6260  -29.0330   -1.8080 C   0  0  0  0  0  0  0  0  0  0  0  0
   12.4210  -30.4630   -3.3670 C   0  0  0  0  0  0  0  0  0  0  0  0
   14.6090  -23.3150   -2.4250 C   0  0  0  0  0  0  0  0  0  0  0  0
   18.4890  -26.2520   -1.8320 C   0  0  0  0  0  0  0  0  0  0  0  0
   12.8170  -30.1580   -2.0530 C   0  0  0  0  0  0  0  0  0  0  0  0
   18.6650  -23.9740   -1.6470 C   0  0  0  0  0  0  0  0  0  0  0  0
   19.0530  -21.4890   -1.4110 C   0  0  0  0  0  0  0  0  0  0  0  0
   14.5930  -33.9330   -7.0960 C   0  0  0  0  0  0  0  0  0  0  0  0
   18.2210  -21.1260   -2.6550 C   0  0  0  0  0  0  0  0  0  0  0  0
   17.9450  -19.6160   -2.7790 C   0  0  0  0  0  0  0  0  0  0  0  0
   12.1643  -33.4844   -5.7876 H   0  0  0  0  0  0  0  0  0  0  0  0
   13.4152  -32.3331   -5.1690 H   0  0  0  0  0  0  0  0  0  0  0  0
   16.6737  -28.2400   -2.3313 H   0  0  0  0  0  0  0  0  0  0  0  0
   12.7749  -29.2985   -6.4280 H   0  0  0  0  0  0  0  0  0  0  0  0
   14.1169  -31.8845   -7.4548 H   0  0  0  0  0  0  0  0  0  0  0  0
   12.8861  -33.0818   -8.0519 H   0  0  0  0  0  0  0  0  0  0  0  0
   11.7973  -31.3359   -3.5595 H   0  0  0  0  0  0  0  0  0  0  0  0
   14.1843  -23.1136   -3.4084 H   0  0  0  0  0  0  0  0  0  0  0  0
   13.8301  -23.2306   -1.6672 H   0  0  0  0  0  0  0  0  0  0  0  0
   15.4009  -22.5959   -2.2156 H   0  0  0  0  0  0  0  0  0  0  0  0
   18.9241  -27.2511   -1.8056 H   0  0  0  0  0  0  0  0  0  0  0  0
   12.4980  -30.7918   -1.2256 H   0  0  0  0  0  0  0  0  0  0  0  0
   19.9509  -20.8711   -1.4084 H   0  0  0  0  0  0  0  0  0  0  0  0
   18.4386  -21.3175   -0.5271 H   0  0  0  0  0  0  0  0  0  0  0  0
   15.2796  -33.6916   -6.2846 H   0  0  0  0  0  0  0  0  0  0  0  0
   14.0740  -34.8643   -6.8695 H   0  0  0  0  0  0  0  0  0  0  0  0
   15.1515  -34.0436   -8.0255 H   0  0  0  0  0  0  0  0  0  0  0  0
   20.4465  -23.0748   -1.2347 H   0  0  0  0  0  0  0  0  0  0  0  0
   17.2594  -21.6321   -2.5691 H   0  0  0  0  0  0  0  0  0  0  0  0
   18.7890  -21.4317   -3.5336 H   0  0  0  0  0  0  0  0  0  0  0  0
   18.7948  -19.1368   -3.2651 H   0  0  0  0  0  0  0  0  0  0  0  0
   17.7955  -19.1978   -1.7836 H   0  0  0  0  0  0  0  0  0  0  0  0
   16.6229  -18.4502   -3.6228 H   0  0  0  0  0  0  0  0  0  0  0  0
  1  4  2  0  0  0  0
  1  5  2  0  0  0  0
  1  9  1  0  0  0  0
  1 15  1  0  0  0  0
  2 21  1  0  0  0  0
  3 23  1  0  0  0  0
  6 20  2  0  0  0  0
  7 32  1  0  0  0  0
  7 55  1  0  0  0  0
  8 16  1  0  0  0  0
  8 20  1  0  0  0  0
  8 25  1  0  0  0  0
  9 18  1  0  0  0  0
  9 36  1  0  0  0  0
 10 16  1  0  0  0  0
 10 28  2  0  0  0  0
 11 28  1  0  0  0  0
 11 29  1  0  0  0  0
 11 50  1  0  0  0  0
 12 26  2  0  0  0  0
 12 28  1  0  0  0  0
 13 14  1  0  0  0  0
 13 19  2  0  0  0  0
 13 20  1  0  0  0  0
 14 21  1  0  0  0  0
 14 23  2  0  0  0  0
 15 22  1  0  0  0  0
 15 33  1  0  0  0  0
 15 34  1  0  0  0  0
 16 17  2  0  0  0  0
 17 19  1  0  0  0  0
 17 26  1  0  0  0  0
 18 21  2  0  0  0  0
 18 24  1  0  0  0  0
 19 35  1  0  0  0  0
 22 30  1  0  0  0  0
 22 37  1  0  0  0  0
 22 38  1  0  0  0  0
 23 27  1  0  0  0  0
 24 27  2  0  0  0  0
 24 39  1  0  0  0  0
 25 40  1  0  0  0  0
 25 41  1  0  0  0  0
 25 42  1  0  0  0  0
 26 43  1  0  0  0  0
 27 44  1  0  0  0  0
 29 31  1  0  0  0  0
 29 45  1  0  0  0  0
 29 46  1  0  0  0  0
 30 47  1  0  0  0  0
 30 48  1  0  0  0  0
 30 49  1  0  0  0  0
 31 32  1  0  0  0  0
 31 51  1  0  0  0  0
 31 52  1  0  0  0  0
 32 53  1  0  0  0  0
 32 54  1  0  0  0  0
M  END
> <PUBCHEM_COMPOUND_ID_TYPE>
0

> <PUBCHEM_TOTAL_CHARGE>
0

> <PUBCHEM_SUBSTANCE_ID>
170484893

> <PUBCHEM_SUBSTANCE_VERSION>
1

> <PUBCHEM_EXT_DATASOURCE_NAME>
Shanghai Institute of Organic Chemistry

> <PUBCHEM_EXT_DATASOURCE_REGID>
4e4x

> <PUBCHEM_SUBSTANCE_COMMENT>
PDB code 4e4x, binding affinity data from PDBbind-CN database: IC50=7nM

> <PUBCHEM_SUBSTANCE_SYNONYM>
4e4x

> <PUBCHEM_XREF_EXT_ID>
4e4x

> <PUBCHEM_EXT_DATASOURCE_URL>
http://www.sioc-ccbg.ac.cn/

> <PUBCHEM_EXT_SUBSTANCE_URL>
http://www.pdbbind-cn.org/quickpdb.asp?quickpdb=4e4x

> <PUBCHEM_CID_ASSOCIATIONS>
56955962  1

> <PUBCHEM_CONFORMER_ID>
0A29649D00010001

> <PUBCHEM_COORDINATE_TYPE>
2
3
4

$$$$
170485100
  -OEChem-11262106393D

 84 88  0     1  0  0  0  0  0999 V2000
  -70.7820  -18.0960    2.2070 S   0  0  0  0  0  0  0  0  0  0  0  0
  -69.9760  -18.5850    1.0200 O   0  0  0  0  0  0  0  0  0  0  0  0
  -72.1090  -17.6190    1.7010 O   0  0  0  0  0  0  0  0  0  0  0  0
  -74.5720  -24.4890    3.8290 O   0  0  0  0  0  0  0  0  0  0  0  0
  -68.1060  -13.5110    4.7860 O   0  0  0  0  0  0  0  0  0  0  0  0
  -75.6320  -22.9860    5.1660 O   0  0  0  0  0  0  0  0  0  0  0  0
  -71.0140  -19.3990    3.2130 N   0  0  1  0  0  0  0  0  0  0  0  0
  -69.0630  -19.0090    5.5120 N   0  0  3  0  0  0  0  0  0  0  0  0
  -65.9430  -19.2530    7.5650 N   0  0  0  0  0  0  0  0  0  0  0  0
  -67.0550  -20.6290    8.7620 N   0  0  0  0  0  0  0  0  0  0  0  0
  -74.1610  -15.3670    8.0320 N   0  0  0  0  0  0  0  0  0  0  0  0
  -76.8420  -24.6370    4.1570 N   0  0  0  0  0  0  0  0  0  0  0  0
  -69.7250  -20.1430    3.3730 C   0  0  1  0  0  0  0  0  0  0  0  0
  -69.2130  -20.3190    4.8190 C   0  0  0  0  0  0  0  0  0  0  0  0
  -71.9670  -19.1920    4.3400 C   0  0  0  0  0  0  0  0  0  0  0  0
  -69.8640  -21.5100    2.6590 C   0  0  0  0  0  0  0  0  0  0  0  0
  -70.1140  -18.2720    5.9610 C   0  0  0  0  0  0  0  0  0  0  0  0
  -71.4300  -18.3420    5.4740 C   0  0  0  0  0  0  0  0  0  0  0  0
  -67.6740  -18.6010    5.7660 C   0  0  0  0  0  0  0  0  0  0  0  0
  -71.1510  -22.3070    2.9650 C   0  0  0  0  0  0  0  0  0  0  0  0
  -72.4600  -17.5800    6.0180 C   0  0  0  0  0  0  0  0  0  0  0  0
  -69.8330  -17.4010    7.0450 C   0  0  0  0  0  0  0  0  0  0  0  0
  -69.9670  -16.6930    2.9690 C   0  0  0  0  0  0  0  0  0  0  0  0
  -67.1630  -19.3450    7.0120 C   0  0  0  0  0  0  0  0  0  0  0  0
  -72.1700  -16.7130    7.0780 C   0  0  0  0  0  0  0  0  0  0  0  0
  -70.8550  -16.6220    7.5960 C   0  0  0  0  0  0  0  0  0  0  0  0
  -72.3440  -22.0020    2.3290 C   0  0  0  0  0  0  0  0  0  0  0  0
  -71.1090  -23.3580    3.8750 C   0  0  0  0  0  0  0  0  0  0  0  0
  -68.5750  -16.6570    3.0350 C   0  0  0  0  0  0  0  0  0  0  0  0
  -70.7380  -15.6480    3.5060 C   0  0  0  0  0  0  0  0  0  0  0  0
  -67.8480  -20.1960    7.7710 C   0  0  0  0  0  0  0  0  0  0  0  0
  -73.5110  -22.7000    2.6070 C   0  0  0  0  0  0  0  0  0  0  0  0
  -72.2670  -24.0540    4.1560 C   0  0  0  0  0  0  0  0  0  0  0  0
  -73.4680  -23.7380    3.5290 C   0  0  0  0  0  0  0  0  0  0  0  0
  -65.8630  -20.0400    8.6430 C   0  0  0  0  0  0  0  0  0  0  0  0
  -67.9680  -15.5960    3.6640 C   0  0  0  0  0  0  0  0  0  0  0  0
  -70.1270  -14.5730    4.1310 C   0  0  0  0  0  0  0  0  0  0  0  0
  -64.8260  -18.4100    7.0600 C   0  0  0  0  0  0  0  0  0  0  0  0
  -68.7380  -14.5560    4.1930 C   0  0  0  0  0  0  0  0  0  0  0  0
  -73.2650  -15.9430    7.6290 C   0  0  0  0  0  0  0  0  0  0  0  0
  -75.7040  -23.9810    4.4330 C   0  0  0  0  0  0  0  0  0  0  0  0
  -67.8030  -13.9110    6.1380 C   0  0  0  0  0  0  0  0  0  0  0  0
  -76.7850  -25.8070    3.2540 C   0  0  0  0  0  0  0  0  0  0  0  0
  -78.1700  -24.2330    4.7120 C   0  0  0  0  0  0  0  0  0  0  0  0
  -77.0280  -25.2800    1.8230 C   0  0  0  0  0  0  0  0  0  0  0  0
  -78.7220  -22.9150    4.0700 C   0  0  0  0  0  0  0  0  0  0  0  0
  -68.9553  -19.5219    2.9150 H   0  0  0  0  0  0  0  0  0  0  0  0
  -68.2367  -20.8022    4.7818 H   0  0  0  0  0  0  0  0  0  0  0  0
  -69.9376  -20.9186    5.3699 H   0  0  0  0  0  0  0  0  0  0  0  0
  -72.8319  -18.6684    3.9326 H   0  0  0  0  0  0  0  0  0  0  0  0
  -72.1854  -20.1755    4.7561 H   0  0  0  0  0  0  0  0  0  0  0  0
  -69.8836  -21.2962    1.5904 H   0  0  0  0  0  0  0  0  0  0  0  0
  -69.0339  -22.1236    3.0091 H   0  0  0  0  0  0  0  0  0  0  0  0
  -67.6281  -17.5247    5.9320 H   0  0  0  0  0  0  0  0  0  0  0  0
  -67.0518  -18.8477    4.9057 H   0  0  0  0  0  0  0  0  0  0  0  0
  -73.4740  -17.6570    5.6257 H   0  0  0  0  0  0  0  0  0  0  0  0
  -68.8220  -17.3392    7.4477 H   0  0  0  0  0  0  0  0  0  0  0  0
  -70.6399  -15.9455    8.4232 H   0  0  0  0  0  0  0  0  0  0  0  0
  -72.3663  -21.1967    1.5948 H   0  0  0  0  0  0  0  0  0  0  0  0
  -70.1717  -23.6290    4.3609 H   0  0  0  0  0  0  0  0  0  0  0  0
  -67.9782  -17.4563    2.5955 H   0  0  0  0  0  0  0  0  0  0  0  0
  -71.8248  -15.6835    3.4303 H   0  0  0  0  0  0  0  0  0  0  0  0
  -68.8848  -20.4930    7.6132 H   0  0  0  0  0  0  0  0  0  0  0  0
  -74.4452  -22.4381    2.1103 H   0  0  0  0  0  0  0  0  0  0  0  0
  -72.2402  -24.8662    4.8825 H   0  0  0  0  0  0  0  0  0  0  0  0
  -64.9987  -20.1737    9.2935 H   0  0  0  0  0  0  0  0  0  0  0  0
  -66.8819  -15.5655    3.7506 H   0  0  0  0  0  0  0  0  0  0  0  0
  -70.7178  -13.7644    4.5614 H   0  0  0  0  0  0  0  0  0  0  0  0
  -64.5717  -18.7159    6.0452 H   0  0  0  0  0  0  0  0  0  0  0  0
  -65.1333  -17.3642    7.0593 H   0  0  0  0  0  0  0  0  0  0  0  0
  -63.9575  -18.5344    7.7068 H   0  0  0  0  0  0  0  0  0  0  0  0
  -68.7291  -14.1482    6.6616 H   0  0  0  0  0  0  0  0  0  0  0  0
  -67.1590  -14.7903    6.1197 H   0  0  0  0  0  0  0  0  0  0  0  0
  -67.2926  -13.0959    6.6510 H   0  0  0  0  0  0  0  0  0  0  0  0
  -75.8173  -26.3036    3.3245 H   0  0  0  0  0  0  0  0  0  0  0  0
  -77.5392  -26.5446    3.5281 H   0  0  0  0  0  0  0  0  0  0  0  0
  -78.0452  -24.0566    5.7804 H   0  0  0  0  0  0  0  0  0  0  0  0
  -78.8790  -25.0319    4.4950 H   0  0  0  0  0  0  0  0  0  0  0  0
  -78.0060  -24.8011    1.7748 H   0  0  0  0  0  0  0  0  0  0  0  0
  -76.2544  -24.5559    1.5676 H   0  0  0  0  0  0  0  0  0  0  0  0
  -76.9946  -26.1124    1.1201 H   0  0  0  0  0  0  0  0  0  0  0  0
  -78.0216  -22.1008    4.2559 H   0  0  0  0  0  0  0  0  0  0  0  0
  -78.8392  -23.0571    2.9957 H   0  0  0  0  0  0  0  0  0  0  0  0
  -79.6880  -22.6733    4.5133 H   0  0  0  0  0  0  0  0  0  0  0  0
  1  2  2  0  0  0  0
  1  3  2  0  0  0  0
  1  7  1  0  0  0  0
  1 23  1  0  0  0  0
  4 34  1  0  0  0  0
  4 41  1  0  0  0  0
  5 39  1  0  0  0  0
  5 42  1  0  0  0  0
  6 41  2  0  0  0  0
  7 13  1  0  0  0  0
  7 15  1  0  0  0  0
  8 14  1  0  0  0  0
  8 17  1  0  0  0  0
  8 19  1  0  0  0  0
  9 24  1  0  0  0  0
  9 35  1  0  0  0  0
  9 38  1  0  0  0  0
 10 31  1  0  0  0  0
 10 35  2  0  0  0  0
 11 40  3  0  0  0  0
 12 41  1  0  0  0  0
 12 43  1  0  0  0  0
 12 44  1  0  0  0  0
 13 14  1  0  0  0  0
 13 16  1  0  0  0  0
 13 47  1  0  0  0  0
 14 48  1  0  0  0  0
 14 49  1  0  0  0  0
 15 18  1  0  0  0  0
 15 50  1  0  0  0  0
 15 51  1  0  0  0  0
 16 20  1  0  0  0  0
 16 52  1  0  0  0  0
 16 53  1  0  0  0  0
 17 18  2  0  0  0  0
 17 22  1  0  0  0  0
 18 21  1  0  0  0  0
 19 24  1  0  0  0  0
 19 54  1  0  0  0  0
 19 55  1  0  0  0  0
 20 27  2  0  0  0  0
 20 28  1  0  0  0  0
 21 25  2  0  0  0  0
 21 56  1  0  0  0  0
 22 26  2  0  0  0  0
 22 57  1  0  0  0  0
 23 29  2  0  0  0  0
 23 30  1  0  0  0  0
 24 31  2  0  0  0  0
 25 26  1  0  0  0  0
 25 40  1  0  0  0  0
 26 58  1  0  0  0  0
 27 32  1  0  0  0  0
 27 59  1  0  0  0  0
 28 33  2  0  0  0  0
 28 60  1  0  0  0  0
 29 36  1  0  0  0  0
 29 61  1  0  0  0  0
 30 37  2  0  0  0  0
 30 62  1  0  0  0  0
 31 63  1  0  0  0  0
 32 34  2  0  0  0  0
 32 64  1  0  0  0  0
 33 34  1  0  0  0  0
 33 65  1  0  0  0  0
 35 66  1  0  0  0  0
 36 39  2  0  0  0  0
 36 67  1  0  0  0  0
 37 39  1  0  0  0  0
 37 68  1  0  0  0  0
 38 69  1  0  0  0  0
 38 70  1  0  0  0  0
 38 71  1  0  0  0  0
 42 72  1  0  0  0  0
 42 73  1  0  0  0  0
 42 74  1  0  0  0  0
 43 45  1  0  0  0  0
 43 75  1  0  0  0  0
 43 76  1  0  0  0  0
 44 46  1  0  0  0  0
 44 77  1  0  0  0  0
 44 78  1  0  0  0  0
 45 79  1  0  0  0  0
 45 80  1  0  0  0  0
 45 81  1  0  0  0  0
 46 82  1  0  0  0  0
 46 83  1  0  0  0  0
 46 84  1  0  0  0  0
M  END
> <PUBCHEM_COMPOUND_ID_TYPE>
0

> <PUBCHEM_TOTAL_CHARGE>
0

> <PUBCHEM_SUBSTANCE_ID>
170485100

> <PUBCHEM_SUBSTANCE_VERSION>
1

> <PUBCHEM_EXT_DATASOURCE_NAME>
Shanghai Institute of Organic Chemistry

> <PUBCHEM_EXT_DATASOURCE_REGID>
4gtr

> <PUBCHEM_SUBSTANCE_COMMENT>
PDB code 4gtr, binding affinity data from PDBbind-CN database: IC50=5nM

> <PUBCHEM_SUBSTANCE_SYNONYM>
4gtr

> <PUBCHEM_XREF_EXT_ID>
4gtr

> <PUBCHEM_EXT_DATASOURCE_URL>
http://www.sioc-ccbg.ac.cn/

> <PUBCHEM_EXT_SUBSTANCE_URL>
http://www.pdbbind-cn.org/quickpdb.asp?quickpdb=4gtr

> <PUBCHEM_CID_ASSOCIATIONS>
54762546  1

> <PUBCHEM_CONFORMER_ID>
0A29656C00010001

> <PUBCHEM_COORDINATE_TYPE>
2
3
4

$$$$
170485112
  -OEChem-11262106393D

 61 62  0     0  0  0  0  0  0999 V2000
  -12.3470  -10.0480   -5.0440 O   0  0  0  0  0  0  0  0  0  0  0  0
   -9.7780  -15.2360   -5.8880 O   0  0  0  0  0  0  0  0  0  0  0  0
  -11.6620  -12.2260  -10.4160 O   0  5  0  0  0  0  0  0  0  0  0  0
  -12.0690  -12.8400   -8.4280 O   0  0  0  0  0  0  0  0  0  0  0  0
   -9.1170  -17.5530  -11.9280 O   0  0  0  0  0  0  0  0  0  0  0  0
   -8.5000  -15.6520  -13.1190 O   0  0  0  0  0  0  0  0  0  0  0  0
  -10.0070  -13.5280   -7.3650 N   0  0  0  0  0  0  0  0  0  0  0  0
   -8.9460  -16.3090  -11.9410 N   0  0  0  0  0  0  0  0  0  0  0  0
  -12.8410   -5.2910   -1.3630 C   0  0  0  0  0  0  0  0  0  0  0  0
  -14.2470   -4.9340   -0.9780 C   0  0  0  0  0  0  0  0  0  0  0  0
  -12.9320   -5.9050   -2.7380 C   0  0  0  0  0  0  0  0  0  0  0  0
  -14.2460   -3.8570    0.0750 C   0  0  0  0  0  0  0  0  0  0  0  0
  -12.6900   -7.3800   -2.7000 C   0  0  0  0  0  0  0  0  0  0  0  0
  -15.1480   -4.2920    1.1790 C   0  0  0  0  0  0  0  0  0  0  0  0
  -12.7550   -7.9190   -4.1120 C   0  0  0  0  0  0  0  0  0  0  0  0
  -16.3370   -3.4110    1.1590 C   0  0  0  0  0  0  0  0  0  0  0  0
  -13.1140   -9.3780   -4.0880 C   0  0  0  0  0  0  0  0  0  0  0  0
  -16.5160   -2.8520    2.5310 C   0  0  0  0  0  0  0  0  0  0  0  0
  -11.8190  -11.2350   -4.6670 C   0  0  0  0  0  0  0  0  0  0  0  0
  -11.2110  -12.0630   -5.5870 C   0  0  0  0  0  0  0  0  0  0  0  0
  -11.8550  -11.6500   -3.3660 C   0  0  0  0  0  0  0  0  0  0  0  0
  -10.6360  -13.2600   -5.2180 C   0  0  0  0  0  0  0  0  0  0  0  0
  -11.2950  -12.8550   -2.9980 C   0  0  0  0  0  0  0  0  0  0  0  0
  -10.6970  -13.6640   -3.9170 C   0  0  0  0  0  0  0  0  0  0  0  0
  -10.0730  -14.0850   -6.1640 C   0  0  0  0  0  0  0  0  0  0  0  0
   -9.6640  -14.2350   -8.4290 C   0  0  0  0  0  0  0  0  0  0  0  0
  -10.4400  -13.9700   -9.5570 C   0  0  0  0  0  0  0  0  0  0  0  0
   -8.6740  -15.2090   -8.4760 C   0  0  0  0  0  0  0  0  0  0  0  0
  -10.2070  -14.6700  -10.7540 C   0  0  0  0  0  0  0  0  0  0  0  0
   -9.1890  -15.6260  -10.8150 C   0  0  0  0  0  0  0  0  0  0  0  0
   -8.4340  -15.8850   -9.6650 C   0  0  0  0  0  0  0  0  0  0  0  0
  -11.4320  -12.9920   -9.4740 C   0  0  0  0  0  0  0  0  0  0  0  0
  -12.1959   -4.4124   -1.3640 H   0  0  0  0  0  0  0  0  0  0  0  0
  -12.3992   -5.9852   -0.6482 H   0  0  0  0  0  0  0  0  0  0  0  0
  -14.7416   -5.8197   -0.5793 H   0  0  0  0  0  0  0  0  0  0  0  0
  -14.7743   -4.5684   -1.8591 H   0  0  0  0  0  0  0  0  0  0  0  0
  -13.9352   -5.7308   -3.1270 H   0  0  0  0  0  0  0  0  0  0  0  0
  -12.1709   -5.4476   -3.3702 H   0  0  0  0  0  0  0  0  0  0  0  0
  -14.5959   -2.9156   -0.3486 H   0  0  0  0  0  0  0  0  0  0  0  0
  -13.2357   -3.7009    0.4533 H   0  0  0  0  0  0  0  0  0  0  0  0
  -11.7088   -7.5832   -2.2710 H   0  0  0  0  0  0  0  0  0  0  0  0
  -13.4480   -7.8637   -2.0839 H   0  0  0  0  0  0  0  0  0  0  0  0
  -14.6367   -4.2188    2.1389 H   0  0  0  0  0  0  0  0  0  0  0  0
  -15.4432   -5.3322    1.0412 H   0  0  0  0  0  0  0  0  0  0  0  0
  -13.5142   -7.3716   -4.6706 H   0  0  0  0  0  0  0  0  0  0  0  0
  -11.7822   -7.7964   -4.5882 H   0  0  0  0  0  0  0  0  0  0  0  0
  -17.2209   -3.9761    0.8631 H   0  0  0  0  0  0  0  0  0  0  0  0
  -16.1981   -2.6054    0.4380 H   0  0  0  0  0  0  0  0  0  0  0  0
  -12.9135   -9.7907   -3.0993 H   0  0  0  0  0  0  0  0  0  0  0  0
  -14.1734   -9.5007   -4.3133 H   0  0  0  0  0  0  0  0  0  0  0  0
  -16.6621   -3.6683    3.2383 H   0  0  0  0  0  0  0  0  0  0  0  0
  -15.6286   -2.2833    2.8088 H   0  0  0  0  0  0  0  0  0  0  0  0
  -17.3875   -2.1975    2.5444 H   0  0  0  0  0  0  0  0  0  0  0  0
  -11.1844  -11.7627   -6.6345 H   0  0  0  0  0  0  0  0  0  0  0  0
  -12.3307  -11.0229   -2.6120 H   0  0  0  0  0  0  0  0  0  0  0  0
  -11.3313  -13.1658   -1.9539 H   0  0  0  0  0  0  0  0  0  0  0  0
  -10.2728  -14.6219   -3.6161 H   0  0  0  0  0  0  0  0  0  0  0  0
  -10.2245  -12.5371   -7.4705 H   0  0  0  0  0  0  0  0  0  0  0  0
   -8.0897  -15.4408   -7.5855 H   0  0  0  0  0  0  0  0  0  0  0  0
  -10.8191  -14.4675  -11.6329 H   0  0  0  0  0  0  0  0  0  0  0  0
   -7.6416  -16.6325   -9.7036 H   0  0  0  0  0  0  0  0  0  0  0  0
  1 17  1  0  0  0  0
  1 19  1  0  0  0  0
  2 25  2  0  0  0  0
  3 32  1  0  0  0  0
  4 32  2  0  0  0  0
  5  8  2  0  0  0  0
  6  8  2  0  0  0  0
  7 25  1  0  0  0  0
  7 26  1  0  0  0  0
  7 58  1  0  0  0  0
  8 30  1  0  0  0  0
  9 10  1  0  0  0  0
  9 11  1  0  0  0  0
  9 33  1  0  0  0  0
  9 34  1  0  0  0  0
 10 12  1  0  0  0  0
 10 35  1  0  0  0  0
 10 36  1  0  0  0  0
 11 13  1  0  0  0  0
 11 37  1  0  0  0  0
 11 38  1  0  0  0  0
 12 14  1  0  0  0  0
 12 39  1  0  0  0  0
 12 40  1  0  0  0  0
 13 15  1  0  0  0  0
 13 41  1  0  0  0  0
 13 42  1  0  0  0  0
 14 16  1  0  0  0  0
 14 43  1  0  0  0  0
 14 44  1  0  0  0  0
 15 17  1  0  0  0  0
 15 45  1  0  0  0  0
 15 46  1  0  0  0  0
 16 18  1  0  0  0  0
 16 47  1  0  0  0  0
 16 48  1  0  0  0  0
 17 49  1  0  0  0  0
 17 50  1  0  0  0  0
 18 51  1  0  0  0  0
 18 52  1  0  0  0  0
 18 53  1  0  0  0  0
 19 20  2  0  0  0  0
 19 21  1  0  0  0  0
 20 22  1  0  0  0  0
 20 54  1  0  0  0  0
 21 23  2  0  0  0  0
 21 55  1  0  0  0  0
 22 24  2  0  0  0  0
 22 25  1  0  0  0  0
 23 24  1  0  0  0  0
 23 56  1  0  0  0  0
 24 57  1  0  0  0  0
 26 27  2  0  0  0  0
 26 28  1  0  0  0  0
 27 29  1  0  0  0  0
 27 32  1  0  0  0  0
 28 31  2  0  0  0  0
 28 59  1  0  0  0  0
 29 30  2  0  0  0  0
 29 60  1  0  0  0  0
 30 31  1  0  0  0  0
 31 61  1  0  0  0  0
M  CHG  1   3  -1
M  END
> <PUBCHEM_COMPOUND_ID_TYPE>
0

> <PUBCHEM_TOTAL_CHARGE>
-1

> <PUBCHEM_SUBSTANCE_ID>
170485112

> <PUBCHEM_SUBSTANCE_VERSION>
1

> <PUBCHEM_EXT_DATASOURCE_NAME>
Shanghai Institute of Organic Chemistry

> <PUBCHEM_EXT_DATASOURCE_REGID>
4h2o

> <PUBCHEM_SUBSTANCE_COMMENT>
PDB code 4h2o, binding affinity data from PDBbind-CN database: IC50=3.0uM

> <PUBCHEM_SUBSTANCE_SYNONYM>
4h2o

> <PUBCHEM_XREF_EXT_ID>
4h2o

> <PUBCHEM_EXT_DATASOURCE_URL>
http://www.sioc-ccbg.ac.cn/

> <PUBCHEM_EXT_SUBSTANCE_URL>
http://www.pdbbind-cn.org/quickpdb.asp?quickpdb=4h2o

> <PUBCHEM_CID_ASSOCIATIONS>
72200978  1
70679364  2

> <PUBCHEM_CONFORMER_ID>
0A29657800010001

> <PUBCHEM_COORDINATE_TYPE>
2
3
4

$$$$
170485111
  -OEChem-11262106393D

 56 58  0     0  0  0  0  0  0999 V2000
   41.5870   21.3850   59.9690 Br  0  0  0  0  0  0  0  0  0  0  0  0
   44.5660   38.4480   60.1200 Br  0  0  0  0  0  0  0  0  0  0  0  0
   43.6140   21.8290   65.9910 N   0  3  0  0  0  0  0  0  0  0  0  0
   45.4040   34.6050   65.7910 N   0  3  0  0  0  0  0  0  0  0  0  0
   43.3460   23.7360   64.3830 C   0  0  0  0  0  0  0  0  0  0  0  0
   43.0530   23.8210   63.0270 C   0  0  0  0  0  0  0  0  0  0  0  0
   42.7460   22.4760   64.9890 C   0  0  0  0  0  0  0  0  0  0  0  0
   46.7050   35.4470   63.7650 C   0  0  0  0  0  0  0  0  0  0  0  0
   46.0430   35.4820   62.5510 C   0  0  0  0  0  0  0  0  0  0  0  0
   45.7260   35.7320   64.9050 C   0  0  0  0  0  0  0  0  0  0  0  0
   43.3060   25.0060   62.3870 C   0  0  0  0  0  0  0  0  0  0  0  0
   43.0390   25.1610   61.0510 C   0  0  0  0  0  0  0  0  0  0  0  0
   42.5430   22.7310   62.3240 C   0  0  0  0  0  0  0  0  0  0  0  0
   45.7410   34.3020   61.8760 C   0  0  0  0  0  0  0  0  0  0  0  0
   42.5280   24.0660   60.3990 C   0  0  0  0  0  0  0  0  0  0  0  0
   42.2700   22.8430   60.9920 C   0  0  0  0  0  0  0  0  0  0  0  0
   45.6880   36.7150   62.0150 C   0  0  0  0  0  0  0  0  0  0  0  0
   43.2710   26.4020   60.3900 C   0  0  0  0  0  0  0  0  0  0  0  0
   45.0570   34.3570   60.6650 C   0  0  0  0  0  0  0  0  0  0  0  0
   45.0230   36.7830   60.8210 C   0  0  0  0  0  0  0  0  0  0  0  0
   44.7130   35.6020   60.1490 C   0  0  0  0  0  0  0  0  0  0  0  0
   43.4700   27.5110   59.7440 C   0  0  0  0  0  0  0  0  0  0  0  0
   43.6700   28.6730   59.0200 C   0  0  0  0  0  0  0  0  0  0  0  0
   43.9830   29.8800   59.6150 C   0  0  0  0  0  0  0  0  0  0  0  0
   44.1750   31.0320   58.8490 C   0  0  0  0  0  0  0  0  0  0  0  0
   43.5410   28.6470   57.6580 C   0  0  0  0  0  0  0  0  0  0  0  0
   44.6950   33.0700   59.9200 C   0  0  0  0  0  0  0  0  0  0  0  0
   44.0500   30.9700   57.4720 C   0  0  0  0  0  0  0  0  0  0  0  0
   43.7420   29.7630   56.8700 C   0  0  0  0  0  0  0  0  0  0  0  0
   44.4830   32.2910   59.4930 C   0  0  0  0  0  0  0  0  0  0  0  0
   44.4285   23.7038   64.5068 H   0  0  0  0  0  0  0  0  0  0  0  0
   42.9232   24.6042   64.8885 H   0  0  0  0  0  0  0  0  0  0  0  0
   41.8239   22.7642   65.4938 H   0  0  0  0  0  0  0  0  0  0  0  0
   42.5968   21.7632   64.1779 H   0  0  0  0  0  0  0  0  0  0  0  0
   47.4881   36.2051   63.7677 H   0  0  0  0  0  0  0  0  0  0  0  0
   47.1412   34.4582   63.9065 H   0  0  0  0  0  0  0  0  0  0  0  0
   44.7877   36.0209   64.4315 H   0  0  0  0  0  0  0  0  0  0  0  0
   46.2055   36.4823   65.5337 H   0  0  0  0  0  0  0  0  0  0  0  0
   43.7266   25.8395   62.9495 H   0  0  0  0  0  0  0  0  0  0  0  0
   42.3620   21.7876   62.8392 H   0  0  0  0  0  0  0  0  0  0  0  0
   43.1507   20.9955   66.3529 H   0  0  0  0  0  0  0  0  0  0  0  0
   44.4976   21.5659   65.5545 H   0  0  0  0  0  0  0  0  0  0  0  0
   43.7918   22.4798   66.7560 H   0  0  0  0  0  0  0  0  0  0  0  0
   46.0387   33.3403   62.2938 H   0  0  0  0  0  0  0  0  0  0  0  0
   42.3095   24.1678   59.3360 H   0  0  0  0  0  0  0  0  0  0  0  0
   45.9406   37.6314   62.5483 H   0  0  0  0  0  0  0  0  0  0  0  0
   44.7467   34.9141   66.5071 H   0  0  0  0  0  0  0  0  0  0  0  0
   44.9842   33.8533   65.2441 H   0  0  0  0  0  0  0  0  0  0  0  0
   46.2584   34.2680   66.2347 H   0  0  0  0  0  0  0  0  0  0  0  0
   43.5401   26.8782   61.3328 H   0  0  0  0  0  0  0  0  0  0  0  0
   44.1879   35.6554   59.1953 H   0  0  0  0  0  0  0  0  0  0  0  0
   43.7780   28.0104   60.6626 H   0  0  0  0  0  0  0  0  0  0  0  0
   44.0816   29.9340   60.6992 H   0  0  0  0  0  0  0  0  0  0  0  0
   43.2688   27.7081   57.1759 H   0  0  0  0  0  0  0  0  0  0  0  0
   44.1931   31.8651   56.8666 H   0  0  0  0  0  0  0  0  0  0  0  0
   43.6589   29.6937   55.7854 H   0  0  0  0  0  0  0  0  0  0  0  0
  1 16  1  0  0  0  0
  2 20  1  0  0  0  0
  3  7  1  0  0  0  0
  3 41  1  0  0  0  0
  3 42  1  0  0  0  0
  3 43  1  0  0  0  0
  4 10  1  0  0  0  0
  4 47  1  0  0  0  0
  4 48  1  0  0  0  0
  4 49  1  0  0  0  0
  5  6  1  0  0  0  0
  5  7  1  0  0  0  0
  5 31  1  0  0  0  0
  5 32  1  0  0  0  0
  6 11  1  0  0  0  0
  6 13  2  0  0  0  0
  7 33  1  0  0  0  0
  7 34  1  0  0  0  0
  8  9  1  0  0  0  0
  8 10  1  0  0  0  0
  8 35  1  0  0  0  0
  8 36  1  0  0  0  0
  9 14  2  0  0  0  0
  9 17  1  0  0  0  0
 10 37  1  0  0  0  0
 10 38  1  0  0  0  0
 11 12  2  0  0  0  0
 11 39  1  0  0  0  0
 12 15  1  0  0  0  0
 12 18  1  0  0  0  0
 13 16  1  0  0  0  0
 13 40  1  0  0  0  0
 14 19  1  0  0  0  0
 14 44  1  0  0  0  0
 15 16  2  0  0  0  0
 15 45  1  0  0  0  0
 17 20  2  0  0  0  0
 17 46  1  0  0  0  0
 18 22  2  0  0  0  0
 18 50  1  0  0  0  0
 19 21  2  0  0  0  0
 19 27  1  0  0  0  0
 20 21  1  0  0  0  0
 21 51  1  0  0  0  0
 22 23  1  0  0  0  0
 22 52  1  0  0  0  0
 23 24  1  0  0  0  0
 23 26  2  0  0  0  0
 24 25  2  0  0  0  0
 24 53  1  0  0  0  0
 25 28  1  0  0  0  0
 25 30  1  0  0  0  0
 26 29  1  0  0  0  0
 26 54  1  0  0  0  0
 27 30  3  0  0  0  0
 28 29  2  0  0  0  0
 28 55  1  0  0  0  0
 29 56  1  0  0  0  0
M  CHG  2   3   1   4   1
M  END
> <PUBCHEM_COMPOUND_ID_TYPE>
0

> <PUBCHEM_TOTAL_CHARGE>
2

> <PUBCHEM_SUBSTANCE_ID>
170485111

> <PUBCHEM_SUBSTANCE_VERSION>
1

> <PUBCHEM_EXT_DATASOURCE_NAME>
Shanghai Institute of Organic Chemistry

> <PUBCHEM_EXT_DATASOURCE_REGID>
4h2m

> <PUBCHEM_SUBSTANCE_COMMENT>
PDB code 4h2m, binding affinity data from PDBbind-CN database: IC50=6.1uM

> <PUBCHEM_SUBSTANCE_SYNONYM>
4h2m

> <PUBCHEM_XREF_EXT_ID>
4h2m

> <PUBCHEM_EXT_DATASOURCE_URL>
http://www.sioc-ccbg.ac.cn/

> <PUBCHEM_EXT_SUBSTANCE_URL>
http://www.pdbbind-cn.org/quickpdb.asp?quickpdb=4h2m

> <PUBCHEM_CID_ASSOCIATIONS>
72200976  1
72200977  2

> <PUBCHEM_CONFORMER_ID>
0A29657700010001

> <PUBCHEM_COORDINATE_TYPE>
2
3
4

$$$$
170485109
  -OEChem-11262106393D

 67 70  0     0  0  0  0  0  0999 V2000
   -4.0460   -2.7260   10.7650 O   0  0  0  0  0  0  0  0  0  0  0  0
   -1.8650   -5.5980   16.9800 O   0  0  0  0  0  0  0  0  0  0  0  0
   -6.1050    0.3320   12.6040 N   0  0  0  0  0  0  0  0  0  0  0  0
   -6.1220    1.4620   11.7920 N   0  0  0  0  0  0  0  0  0  0  0  0
   -5.4800   -1.9940   12.3210 N   0  0  0  0  0  0  0  0  0  0  0  0
   -2.7990   -5.4200   14.2620 N   0  0  0  0  0  0  0  0  0  0  0  0
   -4.7250   -4.1530   12.3950 N   0  0  0  0  0  0  0  0  0  0  0  0
   -0.0410   -6.7470   16.2990 N   0  0  0  0  0  0  0  0  0  0  0  0
   -5.6180    2.1610    9.4430 C   0  0  0  0  0  0  0  0  0  0  0  0
   -5.7190    1.1650   10.5890 C   0  0  0  0  0  0  0  0  0  0  0  0
   -7.0130    2.6060    9.0150 C   0  0  0  0  0  0  0  0  0  0  0  0
   -4.9140    1.6070    8.2010 C   0  0  0  0  0  0  0  0  0  0  0  0
   -4.8720    3.4050    9.9310 C   0  0  0  0  0  0  0  0  0  0  0  0
   -5.3900   -0.1930   10.5990 C   0  0  0  0  0  0  0  0  0  0  0  0
   -5.6200   -0.6860   11.8530 C   0  0  0  0  0  0  0  0  0  0  0  0
   -6.5010    0.3030   13.9580 C   0  0  0  0  0  0  0  0  0  0  0  0
   -3.0850   -5.7880   12.9720 C   0  0  0  0  0  0  0  0  0  0  0  0
   -2.2870   -6.9030   12.6550 C   0  0  0  0  0  0  0  0  0  0  0  0
   -3.9630   -5.2630   12.0160 C   0  0  0  0  0  0  0  0  0  0  0  0
   -1.8360   -6.2690   14.7570 C   0  0  0  0  0  0  0  0  0  0  0  0
   -1.5180   -7.1850   13.8080 C   0  0  0  0  0  0  0  0  0  0  0  0
   -4.7090   -2.9470   11.7730 C   0  0  0  0  0  0  0  0  0  0  0  0
   -5.6310   -0.1660   14.9410 C   0  0  0  0  0  0  0  0  0  0  0  0
   -7.7580    0.8180   14.3170 C   0  0  0  0  0  0  0  0  0  0  0  0
   -2.3840   -7.4880   11.3770 C   0  0  0  0  0  0  0  0  0  0  0  0
   -4.0580   -5.8630   10.7630 C   0  0  0  0  0  0  0  0  0  0  0  0
    0.6380   -6.7910   17.5970 C   0  0  0  0  0  0  0  0  0  0  0  0
   -1.2620   -6.1940   16.0970 C   0  0  0  0  0  0  0  0  0  0  0  0
   -3.2640   -6.9730   10.4550 C   0  0  0  0  0  0  0  0  0  0  0  0
   -6.0170   -0.1210   16.2730 C   0  0  0  0  0  0  0  0  0  0  0  0
   -8.1360    0.8760   15.6480 C   0  0  0  0  0  0  0  0  0  0  0  0
   -7.2640    0.3940   16.6210 C   0  0  0  0  0  0  0  0  0  0  0  0
    1.4650   -5.5380   17.8870 C   0  0  0  0  0  0  0  0  0  0  0  0
    1.5140   -8.0420   17.6230 C   0  0  0  0  0  0  0  0  0  0  0  0
   -7.6650    0.4220   18.0770 C   0  0  0  0  0  0  0  0  0  0  0  0
   -6.9304    3.3253    8.1868 H   0  0  0  0  0  0  0  0  0  0  0  0
   -7.5228    3.0827    9.8652 H   0  0  0  0  0  0  0  0  0  0  0  0
   -7.5917    1.7309    8.6843 H   0  0  0  0  0  0  0  0  0  0  0  0
   -3.9009    1.2747    8.4714 H   0  0  0  0  0  0  0  0  0  0  0  0
   -4.8495    2.3934    7.4346 H   0  0  0  0  0  0  0  0  0  0  0  0
   -5.4858    0.7549    7.8048 H   0  0  0  0  0  0  0  0  0  0  0  0
   -5.3740    3.8070   10.8234 H   0  0  0  0  0  0  0  0  0  0  0  0
   -4.8702    4.1664    9.1372 H   0  0  0  0  0  0  0  0  0  0  0  0
   -3.8357    3.1357   10.1833 H   0  0  0  0  0  0  0  0  0  0  0  0
   -5.0137   -0.7627    9.7506 H   0  0  0  0  0  0  0  0  0  0  0  0
   -6.0006   -2.2434   13.1375 H   0  0  0  0  0  0  0  0  0  0  0  0
   -3.2326   -4.6388   14.7744 H   0  0  0  0  0  0  0  0  0  0  0  0
   -0.7976   -7.9946   13.9152 H   0  0  0  0  0  0  0  0  0  0  0  0
   -4.6602   -0.5629   14.6669 H   0  0  0  0  0  0  0  0  0  0  0  0
   -8.4354    1.1717   13.5482 H   0  0  0  0  0  0  0  0  0  0  0  0
   -5.3284   -4.2561   13.1857 H   0  0  0  0  0  0  0  0  0  0  0  0
   -1.7666   -8.3416   11.1215 H   0  0  0  0  0  0  0  0  0  0  0  0
   -4.7480   -5.4696   10.0253 H   0  0  0  0  0  0  0  0  0  0  0  0
   -0.1257   -6.8772   18.3839 H   0  0  0  0  0  0  0  0  0  0  0  0
   -3.3438   -7.4329    9.4766 H   0  0  0  0  0  0  0  0  0  0  0  0
   -5.3479   -0.4868   17.0434 H   0  0  0  0  0  0  0  0  0  0  0  0
   -9.0974    1.2909   15.9286 H   0  0  0  0  0  0  0  0  0  0  0  0
    0.4261   -7.1506   15.5123 H   0  0  0  0  0  0  0  0  0  0  0  0
    1.9457   -5.6357   18.8716 H   0  0  0  0  0  0  0  0  0  0  0  0
    0.8074   -4.6562   17.8859 H   0  0  0  0  0  0  0  0  0  0  0  0
    2.2369   -5.4207   17.1122 H   0  0  0  0  0  0  0  0  0  0  0  0
    0.8957   -8.9270   17.4118 H   0  0  0  0  0  0  0  0  0  0  0  0
    1.9757   -8.1458   18.6160 H   0  0  0  0  0  0  0  0  0  0  0  0
    2.3013   -7.9543   16.8599 H   0  0  0  0  0  0  0  0  0  0  0  0
   -6.8528    0.0030   18.6891 H   0  0  0  0  0  0  0  0  0  0  0  0
   -8.5767   -0.1771   18.2178 H   0  0  0  0  0  0  0  0  0  0  0  0
   -7.8575    1.4605   18.3844 H   0  0  0  0  0  0  0  0  0  0  0  0
  1 22  2  0  0  0  0
  2 28  2  0  0  0  0
  3  4  1  0  0  0  0
  3 15  1  0  0  0  0
  3 16  1  0  0  0  0
  4 10  2  0  0  0  0
  5 15  1  0  0  0  0
  5 22  1  0  0  0  0
  5 46  1  0  0  0  0
  6 17  1  0  0  0  0
  6 20  1  0  0  0  0
  6 47  1  0  0  0  0
  7 19  1  0  0  0  0
  7 22  1  0  0  0  0
  7 51  1  0  0  0  0
  8 27  1  0  0  0  0
  8 28  1  0  0  0  0
  8 58  1  0  0  0  0
  9 10  1  0  0  0  0
  9 11  1  0  0  0  0
  9 12  1  0  0  0  0
  9 13  1  0  0  0  0
 10 14  1  0  0  0  0
 11 36  1  0  0  0  0
 11 37  1  0  0  0  0
 11 38  1  0  0  0  0
 12 39  1  0  0  0  0
 12 40  1  0  0  0  0
 12 41  1  0  0  0  0
 13 42  1  0  0  0  0
 13 43  1  0  0  0  0
 13 44  1  0  0  0  0
 14 15  2  0  0  0  0
 14 45  1  0  0  0  0
 16 23  2  0  0  0  0
 16 24  1  0  0  0  0
 17 18  1  0  0  0  0
 17 19  2  0  0  0  0
 18 21  1  0  0  0  0
 18 25  2  0  0  0  0
 19 26  1  0  0  0  0
 20 21  2  0  0  0  0
 20 28  1  0  0  0  0
 21 48  1  0  0  0  0
 23 30  1  0  0  0  0
 23 49  1  0  0  0  0
 24 31  2  0  0  0  0
 24 50  1  0  0  0  0
 25 29  1  0  0  0  0
 25 52  1  0  0  0  0
 26 29  2  0  0  0  0
 26 53  1  0  0  0  0
 27 33  1  0  0  0  0
 27 34  1  0  0  0  0
 27 54  1  0  0  0  0
 29 55  1  0  0  0  0
 30 32  2  0  0  0  0
 30 56  1  0  0  0  0
 31 32  1  0  0  0  0
 31 57  1  0  0  0  0
 32 35  1  0  0  0  0
 33 59  1  0  0  0  0
 33 60  1  0  0  0  0
 33 61  1  0  0  0  0
 34 62  1  0  0  0  0
 34 63  1  0  0  0  0
 34 64  1  0  0  0  0
 35 65  1  0  0  0  0
 35 66  1  0  0  0  0
 35 67  1  0  0  0  0
M  END
> <PUBCHEM_COMPOUND_ID_TYPE>
0

> <PUBCHEM_TOTAL_CHARGE>
0

> <PUBCHEM_SUBSTANCE_ID>
170485109

> <PUBCHEM_SUBSTANCE_VERSION>
1

> <PUBCHEM_EXT_DATASOURCE_NAME>
Shanghai Institute of Organic Chemistry

> <PUBCHEM_EXT_DATASOURCE_REGID>
4h1m

> <PUBCHEM_SUBSTANCE_COMMENT>
PDB code 4h1m, binding affinity data from PDBbind-CN database: IC50=78nM

> <PUBCHEM_SUBSTANCE_SYNONYM>
4h1m

> <PUBCHEM_XREF_EXT_ID>
4h1m

> <PUBCHEM_EXT_DATASOURCE_URL>
http://www.sioc-ccbg.ac.cn/

> <PUBCHEM_EXT_SUBSTANCE_URL>
http://www.pdbbind-cn.org/quickpdb.asp?quickpdb=4h1m

> <PUBCHEM_CID_ASSOCIATIONS>
70678492  1

> <PUBCHEM_CONFORMER_ID>
0A29657500010001

> <PUBCHEM_COORDINATE_TYPE>
2
3
4

$$$$
170485108
  -OEChem-11262106393D

 64 67  0     0  0  0  0  0  0999 V2000
   -4.4050   -2.4250   10.5670 O   0  0  0  0  0  0  0  0  0  0  0  0
   -0.4230  -10.1010    7.6150 O   0  0  0  0  0  0  0  0  0  0  0  0
   -6.8700    0.5960   11.9850 N   0  0  0  0  0  0  0  0  0  0  0  0
   -6.8510    1.7060   11.1360 N   0  0  0  0  0  0  0  0  0  0  0  0
   -6.1630   -1.7520   11.8010 N   0  0  0  0  0  0  0  0  0  0  0  0
   -5.2730   -3.8470   12.0580 N   0  0  0  0  0  0  0  0  0  0  0  0
   -3.9400   -5.6460   12.9360 N   0  0  0  0  0  0  0  0  0  0  0  0
   -3.1300   -6.6560   12.4360 N   0  0  0  0  0  0  0  0  0  0  0  0
   -6.0970    2.3650    8.8530 C   0  0  0  0  0  0  0  0  0  0  0  0
   -6.2760    1.3910   10.0010 C   0  0  0  0  0  0  0  0  0  0  0  0
   -7.4180    2.3900    8.0780 C   0  0  0  0  0  0  0  0  0  0  0  0
   -4.9570    1.9950    7.8880 C   0  0  0  0  0  0  0  0  0  0  0  0
   -5.8120    3.7630    9.4080 C   0  0  0  0  0  0  0  0  0  0  0  0
   -5.9210    0.0370   10.0700 C   0  0  0  0  0  0  0  0  0  0  0  0
   -6.2990   -0.4470   11.3010 C   0  0  0  0  0  0  0  0  0  0  0  0
   -7.4850    0.6130   13.2460 C   0  0  0  0  0  0  0  0  0  0  0  0
   -6.8730    0.0930   14.3920 C   0  0  0  0  0  0  0  0  0  0  0  0
   -8.7470    1.2270   13.3460 C   0  0  0  0  0  0  0  0  0  0  0  0
   -5.2340   -2.6570   11.4270 C   0  0  0  0  0  0  0  0  0  0  0  0
   -7.5360    0.1640   15.6210 C   0  0  0  0  0  0  0  0  0  0  0  0
   -9.3820    1.3300   14.5790 C   0  0  0  0  0  0  0  0  0  0  0  0
   -8.7710    0.7980   15.7150 C   0  0  0  0  0  0  0  0  0  0  0  0
   -4.3900   -4.9100   11.8920 C   0  0  0  0  0  0  0  0  0  0  0  0
   -2.2870   -7.4430   10.2410 C   0  0  0  0  0  0  0  0  0  0  0  0
   -3.0530   -6.5310   11.1350 C   0  0  0  0  0  0  0  0  0  0  0  0
   -3.8690   -5.4380   10.7500 C   0  0  0  0  0  0  0  0  0  0  0  0
   -0.9840   -7.9080   10.5380 C   0  0  0  0  0  0  0  0  0  0  0  0
   -9.4640    0.9050   17.0560 C   0  0  0  0  0  0  0  0  0  0  0  0
   -2.9340   -7.8970    9.0800 C   0  0  0  0  0  0  0  0  0  0  0  0
   -0.3630   -8.7860    9.6590 C   0  0  0  0  0  0  0  0  0  0  0  0
   -1.0140   -9.2380    8.4990 C   0  0  0  0  0  0  0  0  0  0  0  0
   -0.1920   -7.4860   11.7500 C   0  0  0  0  0  0  0  0  0  0  0  0
   -2.3060   -8.7890    8.2250 C   0  0  0  0  0  0  0  0  0  0  0  0
    0.9480  -10.5010    7.7840 C   0  0  0  0  0  0  0  0  0  0  0  0
   -7.6379    1.3897    7.7049 H   0  0  0  0  0  0  0  0  0  0  0  0
   -8.2200    2.7167    8.7400 H   0  0  0  0  0  0  0  0  0  0  0  0
   -7.3329    3.0813    7.2396 H   0  0  0  0  0  0  0  0  0  0  0  0
   -4.0147    1.9659    8.4351 H   0  0  0  0  0  0  0  0  0  0  0  0
   -5.1555    1.0162    7.4514 H   0  0  0  0  0  0  0  0  0  0  0  0
   -4.8961    2.7418    7.0963 H   0  0  0  0  0  0  0  0  0  0  0  0
   -6.6483    4.0833   10.0294 H   0  0  0  0  0  0  0  0  0  0  0  0
   -4.9019    3.7361   10.0072 H   0  0  0  0  0  0  0  0  0  0  0  0
   -5.6837    4.4616    8.5812 H   0  0  0  0  0  0  0  0  0  0  0  0
   -5.4295   -0.5348    9.2829 H   0  0  0  0  0  0  0  0  0  0  0  0
   -6.8301   -2.0441   12.5152 H   0  0  0  0  0  0  0  0  0  0  0  0
   -5.8858   -0.3645   14.3270 H   0  0  0  0  0  0  0  0  0  0  0  0
   -9.2293    1.6239   12.4527 H   0  0  0  0  0  0  0  0  0  0  0  0
   -7.0838   -0.2788   16.5084 H   0  0  0  0  0  0  0  0  0  0  0  0
  -10.3509    1.8232   14.6574 H   0  0  0  0  0  0  0  0  0  0  0  0
   -6.0297   -3.9832   12.7282 H   0  0  0  0  0  0  0  0  0  0  0  0
   -4.0459   -5.0869    9.7334 H   0  0  0  0  0  0  0  0  0  0  0  0
   -9.6175    1.9559   17.3014 H   0  0  0  0  0  0  0  0  0  0  0  0
  -10.4274    0.3975   17.0072 H   0  0  0  0  0  0  0  0  0  0  0  0
   -8.8445    0.4384   17.8219 H   0  0  0  0  0  0  0  0  0  0  0  0
   -4.1585   -5.4858   13.9194 H   0  0  0  0  0  0  0  0  0  0  0  0
   -3.9393   -7.5446    8.8492 H   0  0  0  0  0  0  0  0  0  0  0  0
    0.6486   -9.1309    9.8732 H   0  0  0  0  0  0  0  0  0  0  0  0
    0.0618   -8.3660   12.3410 H   0  0  0  0  0  0  0  0  0  0  0  0
    0.7220   -6.9862   11.4292 H   0  0  0  0  0  0  0  0  0  0  0  0
   -0.7894   -6.8019   12.3527 H   0  0  0  0  0  0  0  0  0  0  0  0
   -2.8246   -9.1416    7.3335 H   0  0  0  0  0  0  0  0  0  0  0  0
    1.5889   -9.6200    7.7505 H   0  0  0  0  0  0  0  0  0  0  0  0
    1.0637  -10.9997    8.7463 H   0  0  0  0  0  0  0  0  0  0  0  0
    1.2269  -11.1854    6.9828 H   0  0  0  0  0  0  0  0  0  0  0  0
  1 19  2  0  0  0  0
  2 31  1  0  0  0  0
  2 34  1  0  0  0  0
  3  4  1  0  0  0  0
  3 15  1  0  0  0  0
  3 16  1  0  0  0  0
  4 10  2  0  0  0  0
  5 15  1  0  0  0  0
  5 19  1  0  0  0  0
  5 45  1  0  0  0  0
  6 19  1  0  0  0  0
  6 23  1  0  0  0  0
  6 50  1  0  0  0  0
  7  8  1  0  0  0  0
  7 23  1  0  0  0  0
  7 55  1  0  0  0  0
  8 25  2  0  0  0  0
  9 10  1  0  0  0  0
  9 11  1  0  0  0  0
  9 12  1  0  0  0  0
  9 13  1  0  0  0  0
 10 14  1  0  0  0  0
 11 35  1  0  0  0  0
 11 36  1  0  0  0  0
 11 37  1  0  0  0  0
 12 38  1  0  0  0  0
 12 39  1  0  0  0  0
 12 40  1  0  0  0  0
 13 41  1  0  0  0  0
 13 42  1  0  0  0  0
 13 43  1  0  0  0  0
 14 15  2  0  0  0  0
 14 44  1  0  0  0  0
 16 17  2  0  0  0  0
 16 18  1  0  0  0  0
 17 20  1  0  0  0  0
 17 46  1  0  0  0  0
 18 21  2  0  0  0  0
 18 47  1  0  0  0  0
 20 22  2  0  0  0  0
 20 48  1  0  0  0  0
 21 22  1  0  0  0  0
 21 49  1  0  0  0  0
 22 28  1  0  0  0  0
 23 26  2  0  0  0  0
 24 25  1  0  0  0  0
 24 27  1  0  0  0  0
 24 29  2  0  0  0  0
 25 26  1  0  0  0  0
 26 51  1  0  0  0  0
 27 30  2  0  0  0  0
 27 32  1  0  0  0  0
 28 52  1  0  0  0  0
 28 53  1  0  0  0  0
 28 54  1  0  0  0  0
 29 33  1  0  0  0  0
 29 56  1  0  0  0  0
 30 31  1  0  0  0  0
 30 57  1  0  0  0  0
 31 33  2  0  0  0  0
 32 58  1  0  0  0  0
 32 59  1  0  0  0  0
 32 60  1  0  0  0  0
 33 61  1  0  0  0  0
 34 62  1  0  0  0  0
 34 63  1  0  0  0  0
 34 64  1  0  0  0  0
M  END
> <PUBCHEM_COMPOUND_ID_TYPE>
0

> <PUBCHEM_TOTAL_CHARGE>
0

> <PUBCHEM_SUBSTANCE_ID>
170485108

> <PUBCHEM_SUBSTANCE_VERSION>
1

> <PUBCHEM_EXT_DATASOURCE_NAME>
Shanghai Institute of Organic Chemistry

> <PUBCHEM_EXT_DATASOURCE_REGID>
4h1j

> <PUBCHEM_SUBSTANCE_COMMENT>
PDB code 4h1j, binding affinity data from PDBbind-CN database: IC50=1200nM

> <PUBCHEM_SUBSTANCE_SYNONYM>
4h1j

> <PUBCHEM_XREF_EXT_ID>
4h1j

> <PUBCHEM_EXT_DATASOURCE_URL>
http://www.sioc-ccbg.ac.cn/

> <PUBCHEM_EXT_SUBSTANCE_URL>
http://www.pdbbind-cn.org/quickpdb.asp?quickpdb=4h1j

> <PUBCHEM_CID_ASSOCIATIONS>
70678491  1

> <PUBCHEM_CONFORMER_ID>
0A29657400010001

> <PUBCHEM_COORDINATE_TYPE>
2
3
4

$$$$
170485103
  -OEChem-11262106393D

 84 88  0     1  0  0  0  0  0999 V2000
    6.5570   20.8960   29.2660 S   0  0  0  0  0  0  0  0  0  0  0  0
    7.9140   20.2660   29.3100 O   0  0  0  0  0  0  0  0  0  0  0  0
    6.6850   22.3050   29.7510 O   0  0  0  0  0  0  0  0  0  0  0  0
    6.3690   22.9620   21.6590 O   0  0  0  0  0  0  0  0  0  0  0  0
    2.9300   17.9420   32.8710 O   0  0  0  0  0  0  0  0  0  0  0  0
    8.3540   23.9930   21.8630 O   0  0  0  0  0  0  0  0  0  0  0  0
    5.9950   20.9220   27.6720 N   0  0  1  0  0  0  0  0  0  0  0  0
    3.7510   18.8530   27.3850 N   0  0  3  0  0  0  0  0  0  0  0  0
    2.1340   15.5170   26.9000 N   0  0  0  0  0  0  0  0  0  0  0  0
    1.1460   16.3780   25.2160 N   0  0  0  0  0  0  0  0  0  0  0  0
   -0.0820   23.5990   30.1250 N   0  0  0  0  0  0  0  0  0  0  0  0
    7.3770   23.9830   19.8430 N   0  0  0  0  0  0  0  0  0  0  0  0
    6.0720   19.5580   27.0750 C   0  0  1  0  0  0  0  0  0  0  0  0
    4.7750   19.1130   26.3700 C   0  0  0  0  0  0  0  0  0  0  0  0
    4.7540   21.7300   27.4280 C   0  0  0  0  0  0  0  0  0  0  0  0
    7.2680   19.5340   26.1030 C   0  0  0  0  0  0  0  0  0  0  0  0
    3.0310   19.8300   27.9230 C   0  0  0  0  0  0  0  0  0  0  0  0
    3.4370   21.1520   27.9690 C   0  0  0  0  0  0  0  0  0  0  0  0
    3.5280   17.4580   27.7900 C   0  0  0  0  0  0  0  0  0  0  0  0
    7.0370   20.4670   24.9160 C   0  0  0  0  0  0  0  0  0  0  0  0
    2.6080   22.1180   28.5430 C   0  0  0  0  0  0  0  0  0  0  0  0
    1.7920   19.4580   28.4650 C   0  0  0  0  0  0  0  0  0  0  0  0
    5.4880   20.0090   30.3330 C   0  0  0  0  0  0  0  0  0  0  0  0
    2.5410   16.7790   26.8250 C   0  0  0  0  0  0  0  0  0  0  0  0
    1.3720   21.7610   29.0790 C   0  0  0  0  0  0  0  0  0  0  0  0
    0.9570   20.4290   29.0420 C   0  0  0  0  0  0  0  0  0  0  0  0
    7.0750   21.8500   25.0820 C   0  0  0  0  0  0  0  0  0  0  0  0
    6.7780   19.9300   23.6590 C   0  0  0  0  0  0  0  0  0  0  0  0
    5.6400   18.6350   30.5100 C   0  0  0  0  0  0  0  0  0  0  0  0
    4.4790   20.6900   31.0080 C   0  0  0  0  0  0  0  0  0  0  0  0
    1.9200   17.3150   25.7750 C   0  0  0  0  0  0  0  0  0  0  0  0
    6.8510   22.6930   23.9960 C   0  0  0  0  0  0  0  0  0  0  0  0
    6.5560   20.7720   22.5740 C   0  0  0  0  0  0  0  0  0  0  0  0
    6.6000   22.1530   22.7340 C   0  0  0  0  0  0  0  0  0  0  0  0
    1.2810   15.2520   25.9140 C   0  0  0  0  0  0  0  0  0  0  0  0
    4.7770   17.9460   31.3590 C   0  0  0  0  0  0  0  0  0  0  0  0
    3.6200   20.0030   31.8580 C   0  0  0  0  0  0  0  0  0  0  0  0
    2.5760   14.5480   27.9340 C   0  0  0  0  0  0  0  0  0  0  0  0
    3.7650   18.6250   32.0340 C   0  0  0  0  0  0  0  0  0  0  0  0
    0.5520   22.7780   29.6620 C   0  0  0  0  0  0  0  0  0  0  0  0
    7.4190   23.6660   21.1360 C   0  0  0  0  0  0  0  0  0  0  0  0
    1.5470   18.2900   32.6470 C   0  0  0  0  0  0  0  0  0  0  0  0
    6.2470   23.5660   18.9910 C   0  0  0  0  0  0  0  0  0  0  0  0
    8.4670   24.7490   19.2110 C   0  0  0  0  0  0  0  0  0  0  0  0
    6.5450   22.1670   18.4190 C   0  0  0  0  0  0  0  0  0  0  0  0
    7.9660   26.1600   18.8980 C   0  0  0  0  0  0  0  0  0  0  0  0
    6.2095   18.8399   27.8834 H   0  0  0  0  0  0  0  0  0  0  0  0
    4.9607   18.2075   25.7923 H   0  0  0  0  0  0  0  0  0  0  0  0
    4.4343   19.8973   25.6941 H   0  0  0  0  0  0  0  0  0  0  0  0
    4.9038   22.6753   27.9495 H   0  0  0  0  0  0  0  0  0  0  0  0
    4.6371   21.7815   26.3455 H   0  0  0  0  0  0  0  0  0  0  0  0
    8.1571   19.8672   26.6384 H   0  0  0  0  0  0  0  0  0  0  0  0
    7.3896   18.5180   25.7273 H   0  0  0  0  0  0  0  0  0  0  0  0
    3.1129   17.4400   28.7977 H   0  0  0  0  0  0  0  0  0  0  0  0
    4.4771   16.9225   27.7665 H   0  0  0  0  0  0  0  0  0  0  0  0
    2.9299   23.1590   28.5721 H   0  0  0  0  0  0  0  0  0  0  0  0
    1.4769   18.4149   28.4384 H   0  0  0  0  0  0  0  0  0  0  0  0
   -0.0092   20.1439   29.4583 H   0  0  0  0  0  0  0  0  0  0  0  0
    7.2807   22.2736   26.0650 H   0  0  0  0  0  0  0  0  0  0  0  0
    6.7490   18.8488   23.5241 H   0  0  0  0  0  0  0  0  0  0  0  0
    6.4322   18.1009   29.9854 H   0  0  0  0  0  0  0  0  0  0  0  0
    4.3621   21.7649   30.8697 H   0  0  0  0  0  0  0  0  0  0  0  0
    2.0250   18.3435   25.4297 H   0  0  0  0  0  0  0  0  0  0  0  0
    6.8718   23.7743   24.1319 H   0  0  0  0  0  0  0  0  0  0  0  0
    6.3463   20.3469   21.5925 H   0  0  0  0  0  0  0  0  0  0  0  0
    0.7890   14.2997   25.7162 H   0  0  0  0  0  0  0  0  0  0  0  0
    4.8940   16.8710   31.4958 H   0  0  0  0  0  0  0  0  0  0  0  0
    2.8329   20.5399   32.3874 H   0  0  0  0  0  0  0  0  0  0  0  0
    3.6574   14.4243   27.8756 H   0  0  0  0  0  0  0  0  0  0  0  0
    2.3046   14.9227   28.9209 H   0  0  0  0  0  0  0  0  0  0  0  0
    2.0894   13.5879   27.7620 H   0  0  0  0  0  0  0  0  0  0  0  0
    1.4096   19.3573   32.8204 H   0  0  0  0  0  0  0  0  0  0  0  0
    1.2751   18.0496   31.6192 H   0  0  0  0  0  0  0  0  0  0  0  0
    0.9158   17.7249   33.3328 H   0  0  0  0  0  0  0  0  0  0  0  0
    5.3312   23.5359   19.5814 H   0  0  0  0  0  0  0  0  0  0  0  0
    6.1171   24.2779   18.1759 H   0  0  0  0  0  0  0  0  0  0  0  0
    8.7772   24.2559   18.2898 H   0  0  0  0  0  0  0  0  0  0  0  0
    9.3195   24.8029   19.8881 H   0  0  0  0  0  0  0  0  0  0  0  0
    7.4596   22.2051   17.8273 H   0  0  0  0  0  0  0  0  0  0  0  0
    6.6703   21.4598   19.2389 H   0  0  0  0  0  0  0  0  0  0  0  0
    5.7151   21.8498   17.7875 H   0  0  0  0  0  0  0  0  0  0  0  0
    7.1157   26.0999   18.2187 H   0  0  0  0  0  0  0  0  0  0  0  0
    7.6600   26.6490   19.8228 H   0  0  0  0  0  0  0  0  0  0  0  0
    8.7666   26.7330   18.4302 H   0  0  0  0  0  0  0  0  0  0  0  0
  1  2  2  0  0  0  0
  1  3  2  0  0  0  0
  1  7  1  0  0  0  0
  1 23  1  0  0  0  0
  4 34  1  0  0  0  0
  4 41  1  0  0  0  0
  5 39  1  0  0  0  0
  5 42  1  0  0  0  0
  6 41  2  0  0  0  0
  7 13  1  0  0  0  0
  7 15  1  0  0  0  0
  8 14  1  0  0  0  0
  8 17  1  0  0  0  0
  8 19  1  0  0  0  0
  9 24  1  0  0  0  0
  9 35  1  0  0  0  0
  9 38  1  0  0  0  0
 10 31  1  0  0  0  0
 10 35  2  0  0  0  0
 11 40  3  0  0  0  0
 12 41  1  0  0  0  0
 12 43  1  0  0  0  0
 12 44  1  0  0  0  0
 13 14  1  0  0  0  0
 13 16  1  0  0  0  0
 13 47  1  0  0  0  0
 14 48  1  0  0  0  0
 14 49  1  0  0  0  0
 15 18  1  0  0  0  0
 15 50  1  0  0  0  0
 15 51  1  0  0  0  0
 16 20  1  0  0  0  0
 16 52  1  0  0  0  0
 16 53  1  0  0  0  0
 17 18  2  0  0  0  0
 17 22  1  0  0  0  0
 18 21  1  0  0  0  0
 19 24  1  0  0  0  0
 19 54  1  0  0  0  0
 19 55  1  0  0  0  0
 20 27  2  0  0  0  0
 20 28  1  0  0  0  0
 21 25  2  0  0  0  0
 21 56  1  0  0  0  0
 22 26  2  0  0  0  0
 22 57  1  0  0  0  0
 23 29  2  0  0  0  0
 23 30  1  0  0  0  0
 24 31  2  0  0  0  0
 25 26  1  0  0  0  0
 25 40  1  0  0  0  0
 26 58  1  0  0  0  0
 27 32  1  0  0  0  0
 27 59  1  0  0  0  0
 28 33  2  0  0  0  0
 28 60  1  0  0  0  0
 29 36  1  0  0  0  0
 29 61  1  0  0  0  0
 30 37  2  0  0  0  0
 30 62  1  0  0  0  0
 31 63  1  0  0  0  0
 32 34  2  0  0  0  0
 32 64  1  0  0  0  0
 33 34  1  0  0  0  0
 33 65  1  0  0  0  0
 35 66  1  0  0  0  0
 36 39  2  0  0  0  0
 36 67  1  0  0  0  0
 37 39  1  0  0  0  0
 37 68  1  0  0  0  0
 38 69  1  0  0  0  0
 38 70  1  0  0  0  0
 38 71  1  0  0  0  0
 42 72  1  0  0  0  0
 42 73  1  0  0  0  0
 42 74  1  0  0  0  0
 43 45  1  0  0  0  0
 43 75  1  0  0  0  0
 43 76  1  0  0  0  0
 44 46  1  0  0  0  0
 44 77  1  0  0  0  0
 44 78  1  0  0  0  0
 45 79  1  0  0  0  0
 45 80  1  0  0  0  0
 45 81  1  0  0  0  0
 46 82  1  0  0  0  0
 46 83  1  0  0  0  0
 46 84  1  0  0  0  0
M  END
> <PUBCHEM_COMPOUND_ID_TYPE>
0

> <PUBCHEM_TOTAL_CHARGE>
0

> <PUBCHEM_SUBSTANCE_ID>
170485103

> <PUBCHEM_SUBSTANCE_VERSION>
1

> <PUBCHEM_EXT_DATASOURCE_NAME>
Shanghai Institute of Organic Chemistry

> <PUBCHEM_EXT_DATASOURCE_REGID>
4gtv

> <PUBCHEM_SUBSTANCE_COMMENT>
PDB code 4gtv, binding affinity data from PDBbind-CN database: IC50=38nM

> <PUBCHEM_SUBSTANCE_SYNONYM>
4gtv

> <PUBCHEM_XREF_EXT_ID>
4gtv

> <PUBCHEM_EXT_DATASOURCE_URL>
http://www.sioc-ccbg.ac.cn/

> <PUBCHEM_EXT_SUBSTANCE_URL>
http://www.pdbbind-cn.org/quickpdb.asp?quickpdb=4gtv

> <PUBCHEM_CID_ASSOCIATIONS>
54762546  1

> <PUBCHEM_CONFORMER_ID>
0A29656F00010001

> <PUBCHEM_COORDINATE_TYPE>
2
3
4

$$$$
170485102
  -OEChem-11262106393D

 85 90  0     1  0  0  0  0  0999 V2000
    6.5730   20.4770   28.9810 S   0  0  0  0  0  0  0  0  0  0  0  0
    7.6480   19.4480   28.6140 O   0  0  0  0  0  0  0  0  0  0  0  0
    7.2250   21.6310   29.7510 O   0  0  0  0  0  0  0  0  0  0  0  0
    7.1980   25.3550   22.4210 O   0  0  0  0  0  0  0  0  0  0  0  0
    2.4220   17.9240   32.4580 O   0  0  0  0  0  0  0  0  0  0  0  0
    7.7470   24.3180   20.4690 O   0  0  0  0  0  0  0  0  0  0  0  0
    5.8030   21.2360   27.3240 N   0  0  1  0  0  0  0  0  0  0  0  0
    3.8450   19.0390   27.1720 N   0  0  3  0  0  0  0  0  0  0  0  0
    2.7840   15.6330   26.2070 N   0  0  0  0  0  0  0  0  0  0  0  0
    1.6730   16.5810   24.6200 N   0  0  0  0  0  0  0  0  0  0  0  0
   -0.3820   23.8260   29.5850 N   0  0  0  0  0  0  0  0  0  0  0  0
    7.6430   26.5460   20.5200 N   0  0  0  0  0  0  0  0  0  0  0  0
    5.6710   20.3870   26.0950 C   0  0  1  0  0  0  0  0  0  0  0  0
    5.1010   19.0060   26.4200 C   0  0  0  0  0  0  0  0  0  0  0  0
    4.6450   22.0950   27.6430 C   0  0  0  0  0  0  0  0  0  0  0  0
    4.8610   20.9470   24.9310 C   0  0  0  0  0  0  0  0  0  0  0  0
    3.0740   20.0870   27.6220 C   0  0  0  0  0  0  0  0  0  0  0  0
    3.4450   21.4260   27.8430 C   0  0  0  0  0  0  0  0  0  0  0  0
    3.4930   17.6660   27.5710 C   0  0  0  0  0  0  0  0  0  0  0  0
    5.4680   22.0840   24.3410 C   0  0  0  0  0  0  0  0  0  0  0  0
    2.5410   22.3650   28.3420 C   0  0  0  0  0  0  0  0  0  0  0  0
    1.7440   19.7530   27.9590 C   0  0  0  0  0  0  0  0  0  0  0  0
    5.3170   19.7020   30.0320 C   0  0  0  0  0  0  0  0  0  0  0  0
    2.7950   16.9520   26.3970 C   0  0  0  0  0  0  0  0  0  0  0  0
    1.2430   22.0140   28.6560 C   0  0  0  0  0  0  0  0  0  0  0  0
    0.8470   20.6990   28.4610 C   0  0  0  0  0  0  0  0  0  0  0  0
    6.4050   22.9100   24.9810 C   0  0  0  0  0  0  0  0  0  0  0  0
    5.1190   22.3740   23.0150 C   0  0  0  0  0  0  0  0  0  0  0  0
    5.2690   18.3130   30.1780 C   0  0  0  0  0  0  0  0  0  0  0  0
    4.3910   20.4940   30.7150 C   0  0  0  0  0  0  0  0  0  0  0  0
    2.1130   17.5480   25.4240 C   0  0  0  0  0  0  0  0  0  0  0  0
    6.9530   23.9920   24.3100 C   0  0  0  0  0  0  0  0  0  0  0  0
    5.6700   23.4600   22.3410 C   0  0  0  0  0  0  0  0  0  0  0  0
    2.0830   15.4050   25.0970 C   0  0  0  0  0  0  0  0  0  0  0  0
    6.6010   24.2710   22.9950 C   0  0  0  0  0  0  0  0  0  0  0  0
    4.2940   17.7250   30.9870 C   0  0  0  0  0  0  0  0  0  0  0  0
    3.4210   19.9070   31.5250 C   0  0  0  0  0  0  0  0  0  0  0  0
    3.4190   14.5860   27.0520 C   0  0  0  0  0  0  0  0  0  0  0  0
    3.3640   18.5170   31.6620 C   0  0  0  0  0  0  0  0  0  0  0  0
    0.3400   23.0130   29.1730 C   0  0  0  0  0  0  0  0  0  0  0  0
    7.5360   25.3550   21.1000 C   0  0  0  0  0  0  0  0  0  0  0  0
    1.0940   18.4320   32.2560 C   0  0  0  0  0  0  0  0  0  0  0  0
    7.9700   26.7630   19.1280 C   0  0  0  0  0  0  0  0  0  0  0  0
    6.8420   27.4000   18.5770 C   0  0  0  0  0  0  0  0  0  0  0  0
    6.1260   28.3790   19.2730 C   0  0  0  0  0  0  0  0  0  0  0  0
    6.4150   27.0670   17.3030 C   0  0  0  0  0  0  0  0  0  0  0  0
    5.0170   29.0150   18.7270 C   0  0  0  0  0  0  0  0  0  0  0  0
    5.3110   27.7060   16.7520 C   0  0  0  0  0  0  0  0  0  0  0  0
    4.6050   28.6820   17.4530 C   0  0  0  0  0  0  0  0  0  0  0  0
    6.7057   20.3487   25.7543 H   0  0  0  0  0  0  0  0  0  0  0  0
    4.8956   18.5106   25.4711 H   0  0  0  0  0  0  0  0  0  0  0  0
    5.8350   18.4923   27.0409 H   0  0  0  0  0  0  0  0  0  0  0  0
    4.4971   22.7498   26.7843 H   0  0  0  0  0  0  0  0  0  0  0  0
    4.8803   22.5994   28.5802 H   0  0  0  0  0  0  0  0  0  0  0  0
    3.8865   21.2486   25.3151 H   0  0  0  0  0  0  0  0  0  0  0  0
    4.7896   20.1714   24.1684 H   0  0  0  0  0  0  0  0  0  0  0  0
    2.8203   17.6982   28.4280 H   0  0  0  0  0  0  0  0  0  0  0  0
    4.3988   17.1225   27.8396 H   0  0  0  0  0  0  0  0  0  0  0  0
    2.8659   23.3953   28.4866 H   0  0  0  0  0  0  0  0  0  0  0  0
    1.4069   18.7254   27.8233 H   0  0  0  0  0  0  0  0  0  0  0  0
   -0.1735   20.4010   28.7017 H   0  0  0  0  0  0  0  0  0  0  0  0
    6.7025   22.7001   26.0084 H   0  0  0  0  0  0  0  0  0  0  0  0
    4.4008   21.7355   22.5006 H   0  0  0  0  0  0  0  0  0  0  0  0
    5.9946   17.6867   29.6590 H   0  0  0  0  0  0  0  0  0  0  0  0
    4.4275   21.5787   30.6136 H   0  0  0  0  0  0  0  0  0  0  0  0
    1.9463   18.6188   25.3068 H   0  0  0  0  0  0  0  0  0  0  0  0
    7.6707   24.6335   24.8214 H   0  0  0  0  0  0  0  0  0  0  0  0
    5.3781   23.6756   21.3132 H   0  0  0  0  0  0  0  0  0  0  0  0
    1.8803   14.4289   24.6563 H   0  0  0  0  0  0  0  0  0  0  0  0
    4.2592   16.6406   31.0918 H   0  0  0  0  0  0  0  0  0  0  0  0
    2.7036   20.5343   32.0541 H   0  0  0  0  0  0  0  0  0  0  0  0
    4.4945   14.7578   27.0941 H   0  0  0  0  0  0  0  0  0  0  0  0
    3.0028   14.6314   28.0584 H   0  0  0  0  0  0  0  0  0  0  0  0
    3.2232   13.6044   26.6204 H   0  0  0  0  0  0  0  0  0  0  0  0
    1.0780   19.5000   32.4732 H   0  0  0  0  0  0  0  0  0  0  0  0
    0.7964   18.2660   31.2206 H   0  0  0  0  0  0  0  0  0  0  0  0
    0.4032   17.9142   32.9214 H   0  0  0  0  0  0  0  0  0  0  0  0
    7.4824   27.3692   21.1004 H   0  0  0  0  0  0  0  0  0  0  0  0
    8.1915   25.8261   18.6169 H   0  0  0  0  0  0  0  0  0  0  0  0
    8.8683   27.3702   19.0166 H   0  0  0  0  0  0  0  0  0  0  0  0
    6.4484   28.6527   20.2776 H   0  0  0  0  0  0  0  0  0  0  0  0
    6.9445   26.3040   16.7324 H   0  0  0  0  0  0  0  0  0  0  0  0
    4.4780   29.7696   19.2999 H   0  0  0  0  0  0  0  0  0  0  0  0
    4.9889   27.4371   15.7460 H   0  0  0  0  0  0  0  0  0  0  0  0
    3.7426   29.1736   17.0027 H   0  0  0  0  0  0  0  0  0  0  0  0
  1  2  2  0  0  0  0
  1  3  2  0  0  0  0
  1  7  1  0  0  0  0
  1 23  1  0  0  0  0
  4 35  1  0  0  0  0
  4 41  1  0  0  0  0
  5 39  1  0  0  0  0
  5 42  1  0  0  0  0
  6 41  2  0  0  0  0
  7 13  1  0  0  0  0
  7 15  1  0  0  0  0
  8 14  1  0  0  0  0
  8 17  1  0  0  0  0
  8 19  1  0  0  0  0
  9 24  1  0  0  0  0
  9 34  1  0  0  0  0
  9 38  1  0  0  0  0
 10 31  1  0  0  0  0
 10 34  2  0  0  0  0
 11 40  3  0  0  0  0
 12 41  1  0  0  0  0
 12 43  1  0  0  0  0
 12 78  1  0  0  0  0
 13 14  1  0  0  0  0
 13 16  1  0  0  0  0
 13 50  1  0  0  0  0
 14 51  1  0  0  0  0
 14 52  1  0  0  0  0
 15 18  1  0  0  0  0
 15 53  1  0  0  0  0
 15 54  1  0  0  0  0
 16 20  1  0  0  0  0
 16 55  1  0  0  0  0
 16 56  1  0  0  0  0
 17 18  2  0  0  0  0
 17 22  1  0  0  0  0
 18 21  1  0  0  0  0
 19 24  1  0  0  0  0
 19 57  1  0  0  0  0
 19 58  1  0  0  0  0
 20 27  2  0  0  0  0
 20 28  1  0  0  0  0
 21 25  2  0  0  0  0
 21 59  1  0  0  0  0
 22 26  2  0  0  0  0
 22 60  1  0  0  0  0
 23 29  2  0  0  0  0
 23 30  1  0  0  0  0
 24 31  2  0  0  0  0
 25 26  1  0  0  0  0
 25 40  1  0  0  0  0
 26 61  1  0  0  0  0
 27 32  1  0  0  0  0
 27 62  1  0  0  0  0
 28 33  2  0  0  0  0
 28 63  1  0  0  0  0
 29 36  1  0  0  0  0
 29 64  1  0  0  0  0
 30 37  2  0  0  0  0
 30 65  1  0  0  0  0
 31 66  1  0  0  0  0
 32 35  2  0  0  0  0
 32 67  1  0  0  0  0
 33 35  1  0  0  0  0
 33 68  1  0  0  0  0
 34 69  1  0  0  0  0
 36 39  2  0  0  0  0
 36 70  1  0  0  0  0
 37 39  1  0  0  0  0
 37 71  1  0  0  0  0
 38 72  1  0  0  0  0
 38 73  1  0  0  0  0
 38 74  1  0  0  0  0
 42 75  1  0  0  0  0
 42 76  1  0  0  0  0
 42 77  1  0  0  0  0
 43 44  1  0  0  0  0
 43 79  1  0  0  0  0
 43 80  1  0  0  0  0
 44 45  2  0  0  0  0
 44 46  1  0  0  0  0
 45 47  1  0  0  0  0
 45 81  1  0  0  0  0
 46 48  2  0  0  0  0
 46 82  1  0  0  0  0
 47 49  2  0  0  0  0
 47 83  1  0  0  0  0
 48 49  1  0  0  0  0
 48 84  1  0  0  0  0
 49 85  1  0  0  0  0
M  END
> <PUBCHEM_COMPOUND_ID_TYPE>
0

> <PUBCHEM_TOTAL_CHARGE>
0

> <PUBCHEM_SUBSTANCE_ID>
170485102

> <PUBCHEM_SUBSTANCE_VERSION>
1

> <PUBCHEM_EXT_DATASOURCE_NAME>
Shanghai Institute of Organic Chemistry

> <PUBCHEM_EXT_DATASOURCE_REGID>
4gtt

> <PUBCHEM_SUBSTANCE_COMMENT>
PDB code 4gtt, binding affinity data from PDBbind-CN database: IC50=6nM

> <PUBCHEM_SUBSTANCE_SYNONYM>
4gtt

> <PUBCHEM_XREF_EXT_ID>
4gtt

> <PUBCHEM_EXT_DATASOURCE_URL>
http://www.sioc-ccbg.ac.cn/

> <PUBCHEM_EXT_SUBSTANCE_URL>
http://www.pdbbind-cn.org/quickpdb.asp?quickpdb=4gtt

> <PUBCHEM_CID_ASSOCIATIONS>
54762496  1

> <PUBCHEM_CONFORMER_ID>
0A29656E00010001

> <PUBCHEM_COORDINATE_TYPE>
2
3
4

$$$$
170485101
  -OEChem-11262106393D

 76 81  0     1  0  0  0  0  0999 V2000
    6.6140   21.0990   28.6760 S   0  0  0  0  0  0  0  0  0  0  0  0
    8.0230   20.5950   28.4810 O   0  0  0  0  0  0  0  0  0  0  0  0
    6.6950   22.4120   29.4100 O   0  0  0  0  0  0  0  0  0  0  0  0
    0.6010   23.7640   29.6880 O   0  0  0  0  0  0  0  0  0  0  0  0
    6.0270   26.0630   23.1380 O   0  0  0  0  0  0  0  0  0  0  0  0
    3.2840   17.3430   32.0180 O   0  0  0  0  0  0  0  0  0  0  0  0
    0.2430   26.7270   30.8480 O   0  0  0  0  0  0  0  0  0  0  0  0
    5.9390   21.4300   27.0730 N   0  0  1  0  0  0  0  0  0  0  0  0
    3.8850   19.1780   26.6930 N   0  0  3  0  0  0  0  0  0  0  0  0
    2.5960   15.7490   25.7810 N   0  0  0  0  0  0  0  0  0  0  0  0
    1.0250   16.8410   24.8120 N   0  0  0  0  0  0  0  0  0  0  0  0
    6.0670   20.2940   26.1110 C   0  0  1  0  0  0  0  0  0  0  0  0
    4.7250   19.6930   25.5920 C   0  0  0  0  0  0  0  0  0  0  0  0
    4.6170   22.1250   26.9970 C   0  0  0  0  0  0  0  0  0  0  0  0
    6.9520   20.7200   24.9170 C   0  0  0  0  0  0  0  0  0  0  0  0
    3.4660   21.3460   27.6500 C   0  0  0  0  0  0  0  0  0  0  0  0
    3.1670   19.9990   27.4810 C   0  0  0  0  0  0  0  0  0  0  0  0
    3.8870   17.7090   26.9060 C   0  0  0  0  0  0  0  0  0  0  0  0
    6.6910   22.1600   24.4330 C   0  0  0  0  0  0  0  0  0  0  0  0
    2.6910   22.1480   28.4850 C   0  0  0  0  0  0  0  0  0  0  0  0
    2.0650   19.4430   28.1680 C   0  0  0  0  0  0  0  0  0  0  0  0
    5.6760   19.9080   29.6450 C   0  0  0  0  0  0  0  0  0  0  0  0
    2.7840   17.0550   26.0510 C   0  0  0  0  0  0  0  0  0  0  0  0
    1.5850   21.6110   29.1670 C   0  0  0  0  0  0  0  0  0  0  0  0
    1.2830   20.2460   29.0150 C   0  0  0  0  0  0  0  0  0  0  0  0
    5.8330   22.3900   23.3520 C   0  0  0  0  0  0  0  0  0  0  0  0
    7.3300   23.2260   25.0720 C   0  0  0  0  0  0  0  0  0  0  0  0
    5.9600   18.5240   29.6800 C   0  0  0  0  0  0  0  0  0  0  0  0
    4.6140   20.3930   30.4220 C   0  0  0  0  0  0  0  0  0  0  0  0
    0.8750   22.4690   30.0270 C   0  0  0  0  0  0  0  0  0  0  0  0
    1.7990   17.7190   25.4410 C   0  0  0  0  0  0  0  0  0  0  0  0
    5.6110   23.7010   22.9260 C   0  0  0  0  0  0  0  0  0  0  0  0
    7.1060   24.5260   24.6450 C   0  0  0  0  0  0  0  0  0  0  0  0
    1.5160   15.6180   25.0100 C   0  0  0  0  0  0  0  0  0  0  0  0
    5.1760   17.6620   30.4690 C   0  0  0  0  0  0  0  0  0  0  0  0
    3.8360   19.5290   31.1940 C   0  0  0  0  0  0  0  0  0  0  0  0
    6.2490   24.7760   23.5660 C   0  0  0  0  0  0  0  0  0  0  0  0
    3.4460   14.5720   26.2290 C   0  0  0  0  0  0  0  0  0  0  0  0
    4.0980   18.1560   31.2360 C   0  0  0  0  0  0  0  0  0  0  0  0
    0.4390   22.2700   31.2840 C   0  0  0  0  0  0  0  0  0  0  0  0
   -0.1290   23.4040   31.7330 C   0  0  0  0  0  0  0  0  0  0  0  0
   -0.0200   24.3140   30.7600 C   0  0  0  0  0  0  0  0  0  0  0  0
   -0.5260   25.7640   30.7830 C   0  0  0  0  0  0  0  0  0  0  0  0
    1.8770   17.8240   32.1160 C   0  0  0  0  0  0  0  0  0  0  0  0
    6.5297   19.4890   26.6819 H   0  0  0  0  0  0  0  0  0  0  0  0
    4.1725   20.4830   25.0834 H   0  0  0  0  0  0  0  0  0  0  0  0
    4.9591   18.8628   24.9256 H   0  0  0  0  0  0  0  0  0  0  0  0
    4.3720   22.2410   25.9412 H   0  0  0  0  0  0  0  0  0  0  0  0
    4.7155   23.0685   27.5338 H   0  0  0  0  0  0  0  0  0  0  0  0
    6.7229   20.0513   24.0873 H   0  0  0  0  0  0  0  0  0  0  0  0
    7.9896   20.6708   25.2472 H   0  0  0  0  0  0  0  0  0  0  0  0
    3.6994   17.4976   27.9587 H   0  0  0  0  0  0  0  0  0  0  0  0
    4.8561   17.3042   26.6144 H   0  0  0  0  0  0  0  0  0  0  0  0
    2.9443   23.2007   28.6106 H   0  0  0  0  0  0  0  0  0  0  0  0
    1.8208   18.3884   28.0406 H   0  0  0  0  0  0  0  0  0  0  0  0
    0.4418   19.8108   29.5546 H   0  0  0  0  0  0  0  0  0  0  0  0
    5.3439   21.5560   22.8486 H   0  0  0  0  0  0  0  0  0  0  0  0
    8.0048   23.0354   25.9065 H   0  0  0  0  0  0  0  0  0  0  0  0
    6.7878   18.1235   29.0948 H   0  0  0  0  0  0  0  0  0  0  0  0
    4.3930   21.4604   30.4230 H   0  0  0  0  0  0  0  0  0  0  0  0
    1.6543   18.7992   25.4565 H   0  0  0  0  0  0  0  0  0  0  0  0
    4.9375   23.8915   22.0904 H   0  0  0  0  0  0  0  0  0  0  0  0
    7.5987   25.3563   25.1509 H   0  0  0  0  0  0  0  0  0  0  0  0
    1.1110   14.6860   24.6158 H   0  0  0  0  0  0  0  0  0  0  0  0
    5.4043   16.5964   30.4885 H   0  0  0  0  0  0  0  0  0  0  0  0
    3.0074   19.9326   31.7760 H   0  0  0  0  0  0  0  0  0  0  0  0
    4.4609   14.6934   25.8503 H   0  0  0  0  0  0  0  0  0  0  0  0
    3.4654   14.5332   27.3181 H   0  0  0  0  0  0  0  0  0  0  0  0
    3.0193   13.6480   25.8388 H   0  0  0  0  0  0  0  0  0  0  0  0
    0.5309   21.3412   31.8471 H   0  0  0  0  0  0  0  0  0  0  0  0
   -0.5919   23.5529   32.7085 H   0  0  0  0  0  0  0  0  0  0  0  0
    5.4189   26.0516   22.3953 H   0  0  0  0  0  0  0  0  0  0  0  0
   -1.5994   25.9485   30.7405 H   0  0  0  0  0  0  0  0  0  0  0  0
    1.8648   18.8198   32.5590 H   0  0  0  0  0  0  0  0  0  0  0  0
    1.4374   17.8629   31.1193 H   0  0  0  0  0  0  0  0  0  0  0  0
    1.3032   17.1398   32.7411 H   0  0  0  0  0  0  0  0  0  0  0  0
  1  2  2  0  0  0  0
  1  3  2  0  0  0  0
  1  8  1  0  0  0  0
  1 22  1  0  0  0  0
  4 30  1  0  0  0  0
  4 42  1  0  0  0  0
  5 37  1  0  0  0  0
  5 72  1  0  0  0  0
  6 39  1  0  0  0  0
  6 44  1  0  0  0  0
  7 43  2  0  0  0  0
  8 12  1  0  0  0  0
  8 14  1  0  0  0  0
  9 13  1  0  0  0  0
  9 17  1  0  0  0  0
  9 18  1  0  0  0  0
 10 23  1  0  0  0  0
 10 34  1  0  0  0  0
 10 38  1  0  0  0  0
 11 31  1  0  0  0  0
 11 34  2  0  0  0  0
 12 13  1  0  0  0  0
 12 15  1  0  0  0  0
 12 45  1  0  0  0  0
 13 46  1  0  0  0  0
 13 47  1  0  0  0  0
 14 16  1  0  0  0  0
 14 48  1  0  0  0  0
 14 49  1  0  0  0  0
 15 19  1  0  0  0  0
 15 50  1  0  0  0  0
 15 51  1  0  0  0  0
 16 17  2  0  0  0  0
 16 20  1  0  0  0  0
 17 21  1  0  0  0  0
 18 23  1  0  0  0  0
 18 52  1  0  0  0  0
 18 53  1  0  0  0  0
 19 26  2  0  0  0  0
 19 27  1  0  0  0  0
 20 24  2  0  0  0  0
 20 54  1  0  0  0  0
 21 25  2  0  0  0  0
 21 55  1  0  0  0  0
 22 28  2  0  0  0  0
 22 29  1  0  0  0  0
 23 31  2  0  0  0  0
 24 25  1  0  0  0  0
 24 30  1  0  0  0  0
 25 56  1  0  0  0  0
 26 32  1  0  0  0  0
 26 57  1  0  0  0  0
 27 33  2  0  0  0  0
 27 58  1  0  0  0  0
 28 35  1  0  0  0  0
 28 59  1  0  0  0  0
 29 36  2  0  0  0  0
 29 60  1  0  0  0  0
 30 40  2  0  0  0  0
 31 61  1  0  0  0  0
 32 37  2  0  0  0  0
 32 62  1  0  0  0  0
 33 37  1  0  0  0  0
 33 63  1  0  0  0  0
 34 64  1  0  0  0  0
 35 39  2  0  0  0  0
 35 65  1  0  0  0  0
 36 39  1  0  0  0  0
 36 66  1  0  0  0  0
 38 67  1  0  0  0  0
 38 68  1  0  0  0  0
 38 69  1  0  0  0  0
 40 41  1  0  0  0  0
 40 70  1  0  0  0  0
 41 42  2  0  0  0  0
 41 71  1  0  0  0  0
 42 43  1  0  0  0  0
 43 73  1  0  0  0  0
 44 74  1  0  0  0  0
 44 75  1  0  0  0  0
 44 76  1  0  0  0  0
M  END
> <PUBCHEM_COMPOUND_ID_TYPE>
0

> <PUBCHEM_TOTAL_CHARGE>
0

> <PUBCHEM_SUBSTANCE_ID>
170485101

> <PUBCHEM_SUBSTANCE_VERSION>
1

> <PUBCHEM_EXT_DATASOURCE_NAME>
Shanghai Institute of Organic Chemistry

> <PUBCHEM_EXT_DATASOURCE_REGID>
4gts

> <PUBCHEM_SUBSTANCE_COMMENT>
PDB code 4gts, binding affinity data from PDBbind-CN database: IC50=12.8nM

> <PUBCHEM_SUBSTANCE_SYNONYM>
4gts

> <PUBCHEM_XREF_EXT_ID>
4gts

> <PUBCHEM_EXT_DATASOURCE_URL>
http://www.sioc-ccbg.ac.cn/

> <PUBCHEM_EXT_SUBSTANCE_URL>
http://www.pdbbind-cn.org/quickpdb.asp?quickpdb=4gts

> <PUBCHEM_CID_ASSOCIATIONS>
54762597  1

> <PUBCHEM_CONFORMER_ID>
0A29656D00010001

> <PUBCHEM_COORDINATE_TYPE>
2
3
4

$$$$
170485099
  -OEChem-11262106393D

 85 90  0     1  0  0  0  0  0999 V2000
  -19.2260   70.8110    5.6030 S   0  0  0  0  0  0  0  0  0  0  0  0
  -18.2300   70.3550    6.6720 O   0  0  0  0  0  0  0  0  0  0  0  0
  -20.2080   71.8270    6.2260 O   0  0  0  0  0  0  0  0  0  0  0  0
  -16.4710   76.2560    7.7190 O   0  0  0  0  0  0  0  0  0  0  0  0
  -21.9180   65.8140    3.2950 O   0  0  0  0  0  0  0  0  0  0  0  0
  -17.2770   75.9400    9.8200 O   0  0  0  0  0  0  0  0  0  0  0  0
  -18.2610   71.6960    4.3880 N   0  0  1  0  0  0  0  0  0  0  0  0
  -17.9110   69.5110    2.4050 N   0  0  3  0  0  0  0  0  0  0  0  0
  -16.3340   66.8270    0.4120 N   0  0  0  0  0  0  0  0  0  0  0  0
  -15.7350   68.4460   -0.9140 N   0  0  0  0  0  0  0  0  0  0  0  0
  -23.4490   72.0670   -0.1690 N   0  0  0  0  0  0  0  0  0  0  0  0
  -18.5110   75.0750    8.1400 N   0  0  0  0  0  0  0  0  0  0  0  0
  -16.9020   71.1620    4.0690 C   0  0  1  0  0  0  0  0  0  0  0  0
  -16.7690   70.3470    2.7720 C   0  0  0  0  0  0  0  0  0  0  0  0
  -19.1360   72.1850    3.3070 C   0  0  0  0  0  0  0  0  0  0  0  0
  -15.7920   72.2370    3.9540 C   0  0  0  0  0  0  0  0  0  0  0  0
  -19.0900   70.0490    1.9650 C   0  0  0  0  0  0  0  0  0  0  0  0
  -19.6150   71.2810    2.3640 C   0  0  0  0  0  0  0  0  0  0  0  0
  -17.5900   68.0860    2.2670 C   0  0  0  0  0  0  0  0  0  0  0  0
  -15.9530   73.2340    4.9060 C   0  0  0  0  0  0  0  0  0  0  0  0
  -20.7840   71.7710    1.7680 C   0  0  0  0  0  0  0  0  0  0  0  0
  -19.7510   69.3480    0.9180 C   0  0  0  0  0  0  0  0  0  0  0  0
  -20.1570   69.2800    4.8870 C   0  0  0  0  0  0  0  0  0  0  0  0
  -16.7890   67.9650    0.9260 C   0  0  0  0  0  0  0  0  0  0  0  0
  -21.4360   71.0490    0.7690 C   0  0  0  0  0  0  0  0  0  0  0  0
  -20.9000   69.8420    0.3190 C   0  0  0  0  0  0  0  0  0  0  0  0
  -15.3350   73.1250    6.1600 C   0  0  0  0  0  0  0  0  0  0  0  0
  -16.7180   74.3640    4.5950 C   0  0  0  0  0  0  0  0  0  0  0  0
  -19.4710   68.0780    4.8480 C   0  0  0  0  0  0  0  0  0  0  0  0
  -21.4730   69.3060    4.3890 C   0  0  0  0  0  0  0  0  0  0  0  0
  -16.4210   68.9710    0.1060 C   0  0  0  0  0  0  0  0  0  0  0  0
  -15.5000   74.1300    7.1170 C   0  0  0  0  0  0  0  0  0  0  0  0
  -16.8860   75.3750    5.5350 C   0  0  0  0  0  0  0  0  0  0  0  0
  -15.6820   67.1390   -0.7340 C   0  0  0  0  0  0  0  0  0  0  0  0
  -16.2690   75.2610    6.7950 C   0  0  0  0  0  0  0  0  0  0  0  0
  -20.0590   66.9360    4.3200 C   0  0  0  0  0  0  0  0  0  0  0  0
  -22.0720   68.1550    3.8430 C   0  0  0  0  0  0  0  0  0  0  0  0
  -16.4640   65.4290    0.9250 C   0  0  0  0  0  0  0  0  0  0  0  0
  -21.3550   66.9580    3.8060 C   0  0  0  0  0  0  0  0  0  0  0  0
  -22.6320   71.6220    0.1930 C   0  0  0  0  0  0  0  0  0  0  0  0
  -17.4260   75.7620    8.6040 C   0  0  0  0  0  0  0  0  0  0  0  0
  -21.1980   64.5940    3.6460 C   0  0  0  0  0  0  0  0  0  0  0  0
  -19.5160   74.4670    8.9760 C   0  0  0  0  0  0  0  0  0  0  0  0
  -20.2790   75.4170    9.6280 C   0  0  0  0  0  0  0  0  0  0  0  0
  -20.9990   76.3410    8.8990 C   0  0  0  0  0  0  0  0  0  0  0  0
  -20.3700   75.4180   11.0120 C   0  0  0  0  0  0  0  0  0  0  0  0
  -21.8080   77.2850    9.5280 C   0  0  0  0  0  0  0  0  0  0  0  0
  -21.1750   76.3520   11.6470 C   0  0  0  0  0  0  0  0  0  0  0  0
  -21.8940   77.2850   10.9090 C   0  0  0  0  0  0  0  0  0  0  0  0
  -16.7706   70.5185    4.9389 H   0  0  0  0  0  0  0  0  0  0  0  0
  -16.6583   71.0753    1.9686 H   0  0  0  0  0  0  0  0  0  0  0  0
  -15.9341   69.6642    2.9295 H   0  0  0  0  0  0  0  0  0  0  0  0
  -18.5181   72.8809    2.7395 H   0  0  0  0  0  0  0  0  0  0  0  0
  -20.0256   72.5588    3.8140 H   0  0  0  0  0  0  0  0  0  0  0  0
  -15.8500   72.6903    2.9644 H   0  0  0  0  0  0  0  0  0  0  0  0
  -14.8268   71.7569    4.1150 H   0  0  0  0  0  0  0  0  0  0  0  0
  -18.4914   67.4734    2.2503 H   0  0  0  0  0  0  0  0  0  0  0  0
  -17.0074   67.7241    3.1142 H   0  0  0  0  0  0  0  0  0  0  0  0
  -21.1898   72.7302    2.0896 H   0  0  0  0  0  0  0  0  0  0  0  0
  -19.3430   68.3964    0.5773 H   0  0  0  0  0  0  0  0  0  0  0  0
  -21.3783   69.2943   -0.4930 H   0  0  0  0  0  0  0  0  0  0  0  0
  -14.7232   72.2525    6.3894 H   0  0  0  0  0  0  0  0  0  0  0  0
  -17.1834   74.4519    3.6133 H   0  0  0  0  0  0  0  0  0  0  0  0
  -18.4542   68.0273    5.2375 H   0  0  0  0  0  0  0  0  0  0  0  0
  -22.0400   70.2362    4.4268 H   0  0  0  0  0  0  0  0  0  0  0  0
  -16.6442   70.0281    0.2502 H   0  0  0  0  0  0  0  0  0  0  0  0
  -15.0383   74.0377    8.1001 H   0  0  0  0  0  0  0  0  0  0  0  0
  -17.4914   76.2498    5.2977 H   0  0  0  0  0  0  0  0  0  0  0  0
  -15.1933   66.4270   -1.3991 H   0  0  0  0  0  0  0  0  0  0  0  0
  -19.4956   66.0030    4.3071 H   0  0  0  0  0  0  0  0  0  0  0  0
  -23.0885   68.1982    3.4519 H   0  0  0  0  0  0  0  0  0  0  0  0
  -16.0029   65.3606    1.9103 H   0  0  0  0  0  0  0  0  0  0  0  0
  -17.5195   65.1666    0.9973 H   0  0  0  0  0  0  0  0  0  0  0  0
  -15.9641   64.7441    0.2401 H   0  0  0  0  0  0  0  0  0  0  0  0
  -20.1791   64.6521    3.2633 H   0  0  0  0  0  0  0  0  0  0  0  0
  -21.1746   64.4867    4.7305 H   0  0  0  0  0  0  0  0  0  0  0  0
  -21.7045   63.7352    3.2055 H   0  0  0  0  0  0  0  0  0  0  0  0
  -18.6181   74.9856    7.1296 H   0  0  0  0  0  0  0  0  0  0  0  0
  -19.0154   73.8540    9.7255 H   0  0  0  0  0  0  0  0  0  0  0  0
  -20.1746   73.8710    8.3443 H   0  0  0  0  0  0  0  0  0  0  0  0
  -20.9337   76.3323    7.8110 H   0  0  0  0  0  0  0  0  0  0  0  0
  -19.8114   74.6881   11.5979 H   0  0  0  0  0  0  0  0  0  0  0  0
  -22.3658   78.0139    8.9400 H   0  0  0  0  0  0  0  0  0  0  0  0
  -21.2445   76.3544   12.7348 H   0  0  0  0  0  0  0  0  0  0  0  0
  -22.5242   78.0150   11.4170 H   0  0  0  0  0  0  0  0  0  0  0  0
  1  2  2  0  0  0  0
  1  3  2  0  0  0  0
  1  7  1  0  0  0  0
  1 23  1  0  0  0  0
  4 35  1  0  0  0  0
  4 41  1  0  0  0  0
  5 39  1  0  0  0  0
  5 42  1  0  0  0  0
  6 41  2  0  0  0  0
  7 13  1  0  0  0  0
  7 15  1  0  0  0  0
  8 14  1  0  0  0  0
  8 17  1  0  0  0  0
  8 19  1  0  0  0  0
  9 24  1  0  0  0  0
  9 34  1  0  0  0  0
  9 38  1  0  0  0  0
 10 31  1  0  0  0  0
 10 34  2  0  0  0  0
 11 40  3  0  0  0  0
 12 41  1  0  0  0  0
 12 43  1  0  0  0  0
 12 78  1  0  0  0  0
 13 14  1  0  0  0  0
 13 16  1  0  0  0  0
 13 50  1  0  0  0  0
 14 51  1  0  0  0  0
 14 52  1  0  0  0  0
 15 18  1  0  0  0  0
 15 53  1  0  0  0  0
 15 54  1  0  0  0  0
 16 20  1  0  0  0  0
 16 55  1  0  0  0  0
 16 56  1  0  0  0  0
 17 18  2  0  0  0  0
 17 22  1  0  0  0  0
 18 21  1  0  0  0  0
 19 24  1  0  0  0  0
 19 57  1  0  0  0  0
 19 58  1  0  0  0  0
 20 27  2  0  0  0  0
 20 28  1  0  0  0  0
 21 25  2  0  0  0  0
 21 59  1  0  0  0  0
 22 26  2  0  0  0  0
 22 60  1  0  0  0  0
 23 29  2  0  0  0  0
 23 30  1  0  0  0  0
 24 31  2  0  0  0  0
 25 26  1  0  0  0  0
 25 40  1  0  0  0  0
 26 61  1  0  0  0  0
 27 32  1  0  0  0  0
 27 62  1  0  0  0  0
 28 33  2  0  0  0  0
 28 63  1  0  0  0  0
 29 36  1  0  0  0  0
 29 64  1  0  0  0  0
 30 37  2  0  0  0  0
 30 65  1  0  0  0  0
 31 66  1  0  0  0  0
 32 35  2  0  0  0  0
 32 67  1  0  0  0  0
 33 35  1  0  0  0  0
 33 68  1  0  0  0  0
 34 69  1  0  0  0  0
 36 39  2  0  0  0  0
 36 70  1  0  0  0  0
 37 39  1  0  0  0  0
 37 71  1  0  0  0  0
 38 72  1  0  0  0  0
 38 73  1  0  0  0  0
 38 74  1  0  0  0  0
 42 75  1  0  0  0  0
 42 76  1  0  0  0  0
 42 77  1  0  0  0  0
 43 44  1  0  0  0  0
 43 79  1  0  0  0  0
 43 80  1  0  0  0  0
 44 45  2  0  0  0  0
 44 46  1  0  0  0  0
 45 47  1  0  0  0  0
 45 81  1  0  0  0  0
 46 48  2  0  0  0  0
 46 82  1  0  0  0  0
 47 49  2  0  0  0  0
 47 83  1  0  0  0  0
 48 49  1  0  0  0  0
 48 84  1  0  0  0  0
 49 85  1  0  0  0  0
M  END
> <PUBCHEM_COMPOUND_ID_TYPE>
0

> <PUBCHEM_TOTAL_CHARGE>
0

> <PUBCHEM_SUBSTANCE_ID>
170485099

> <PUBCHEM_SUBSTANCE_VERSION>
1

> <PUBCHEM_EXT_DATASOURCE_NAME>
Shanghai Institute of Organic Chemistry

> <PUBCHEM_EXT_DATASOURCE_REGID>
4gtq

> <PUBCHEM_SUBSTANCE_COMMENT>
PDB code 4gtq, binding affinity data from PDBbind-CN database: IC50=5nM

> <PUBCHEM_SUBSTANCE_SYNONYM>
4gtq

> <PUBCHEM_XREF_EXT_ID>
4gtq

> <PUBCHEM_EXT_DATASOURCE_URL>
http://www.sioc-ccbg.ac.cn/

> <PUBCHEM_EXT_SUBSTANCE_URL>
http://www.pdbbind-cn.org/quickpdb.asp?quickpdb=4gtq

> <PUBCHEM_CID_ASSOCIATIONS>
54762496  1

> <PUBCHEM_CONFORMER_ID>
0A29656B00010001

> <PUBCHEM_COORDINATE_TYPE>
2
3
4

$$$$
170485098
  -OEChem-11262106393D

 78 83  0     1  0  0  0  0  0999 V2000
   51.7770   52.0380   -1.6390 S   0  0  0  0  0  0  0  0  0  0  0  0
   51.7880   50.9710   -0.6220 O   0  0  0  0  0  0  0  0  0  0  0  0
   52.3520   53.3670   -1.0790 O   0  0  0  0  0  0  0  0  0  0  0  0
   50.7830   55.8000   -6.8890 O   0  0  0  0  0  0  0  0  0  0  0  0
   57.3310   51.9390    1.5490 O   0  0  0  0  0  0  0  0  0  0  0  0
   46.1320   52.0790   -3.8240 O   0  0  0  0  0  0  0  0  0  0  0  0
   49.9240   58.4300   -8.7740 O   0  0  0  0  0  0  0  0  0  0  0  0
   52.9520   51.6720   -2.7750 N   0  0  1  0  0  0  0  0  0  0  0  0
   51.2890   50.0230   -4.7890 N   0  0  3  0  0  0  0  0  0  0  0  0
   49.9960   47.1430   -6.6900 N   0  0  0  0  0  0  0  0  0  0  0  0
   51.5930   47.6980   -8.0680 N   0  0  0  0  0  0  0  0  0  0  0  0
   53.2380   50.2520   -3.1030 C   0  0  1  0  0  0  0  0  0  0  0  0
   52.6740   49.6810   -4.4190 C   0  0  0  0  0  0  0  0  0  0  0  0
   52.9190   52.5570   -3.9270 C   0  0  0  0  0  0  0  0  0  0  0  0
   54.7970   50.0800   -3.1710 C   0  0  0  0  0  0  0  0  0  0  0  0
   51.7210   52.3690   -4.8120 C   0  0  0  0  0  0  0  0  0  0  0  0
   50.9950   51.2430   -5.1590 C   0  0  0  0  0  0  0  0  0  0  0  0
   50.2940   48.9450   -4.9020 C   0  0  0  0  0  0  0  0  0  0  0  0
   55.4980   50.5500   -1.9100 C   0  0  0  0  0  0  0  0  0  0  0  0
   51.3820   53.5800   -5.2850 C   0  0  0  0  0  0  0  0  0  0  0  0
   49.9110   51.2940   -6.0140 C   0  0  0  0  0  0  0  0  0  0  0  0
   50.0810   52.0900   -2.2510 C   0  0  0  0  0  0  0  0  0  0  0  0
   50.6240   48.2100   -6.1920 C   0  0  0  0  0  0  0  0  0  0  0  0
   50.3150   53.6060   -6.1390 C   0  0  0  0  0  0  0  0  0  0  0  0
   49.5740   52.5080   -6.5050 C   0  0  0  0  0  0  0  0  0  0  0  0
   55.8930   51.8610   -1.8370 C   0  0  0  0  0  0  0  0  0  0  0  0
   55.6920   49.6850   -0.8350 C   0  0  0  0  0  0  0  0  0  0  0  0
   49.3370   50.9000   -2.3230 C   0  0  0  0  0  0  0  0  0  0  0  0
   49.4660   53.2550   -2.7060 C   0  0  0  0  0  0  0  0  0  0  0  0
   49.9250   54.8340   -6.5490 C   0  0  0  0  0  0  0  0  0  0  0  0
   51.6050   48.5550   -7.0520 C   0  0  0  0  0  0  0  0  0  0  0  0
   56.5080   52.3040   -0.6700 C   0  0  0  0  0  0  0  0  0  0  0  0
   56.3020   50.1110    0.3470 C   0  0  0  0  0  0  0  0  0  0  0  0
   50.6040   46.8210   -7.8470 C   0  0  0  0  0  0  0  0  0  0  0  0
   48.0300   50.8850   -2.8350 C   0  0  0  0  0  0  0  0  0  0  0  0
   48.1640   53.2280   -3.2240 C   0  0  0  0  0  0  0  0  0  0  0  0
   56.7110   51.4440    0.4240 C   0  0  0  0  0  0  0  0  0  0  0  0
   48.8020   46.4050   -6.0970 C   0  0  0  0  0  0  0  0  0  0  0  0
   48.6660   55.2480   -6.5210 C   0  0  0  0  0  0  0  0  0  0  0  0
   47.4250   52.0550   -3.2990 C   0  0  0  0  0  0  0  0  0  0  0  0
   49.9700   56.8170   -7.1190 C   0  0  0  0  0  0  0  0  0  0  0  0
   48.6810   56.5080   -6.9190 C   0  0  0  0  0  0  0  0  0  0  0  0
   50.3950   58.1450   -7.6550 C   0  0  0  0  0  0  0  0  0  0  0  0
   45.5410   50.7560   -4.1330 C   0  0  0  0  0  0  0  0  0  0  0  0
   52.7310   49.6965   -2.3140 H   0  0  0  0  0  0  0  0  0  0  0  0
   53.2956   50.1064   -5.2069 H   0  0  0  0  0  0  0  0  0  0  0  0
   52.6779   48.5989   -4.2881 H   0  0  0  0  0  0  0  0  0  0  0  0
   53.8011   52.3362   -4.5280 H   0  0  0  0  0  0  0  0  0  0  0  0
   52.8819   53.5782   -3.5476 H   0  0  0  0  0  0  0  0  0  0  0  0
   55.1630   50.6848   -4.0007 H   0  0  0  0  0  0  0  0  0  0  0  0
   55.0099   49.0181   -3.2944 H   0  0  0  0  0  0  0  0  0  0  0  0
   49.2792   49.3424   -4.9206 H   0  0  0  0  0  0  0  0  0  0  0  0
   50.3352   48.2757   -4.0427 H   0  0  0  0  0  0  0  0  0  0  0  0
   51.9232   54.4839   -5.0056 H   0  0  0  0  0  0  0  0  0  0  0  0
   49.3528   50.3965   -6.2806 H   0  0  0  0  0  0  0  0  0  0  0  0
   48.7262   52.6143   -7.1818 H   0  0  0  0  0  0  0  0  0  0  0  0
   55.7291   52.5403   -2.6735 H   0  0  0  0  0  0  0  0  0  0  0  0
   55.3595   48.6503   -0.9186 H   0  0  0  0  0  0  0  0  0  0  0  0
   49.7841   49.9692   -1.9740 H   0  0  0  0  0  0  0  0  0  0  0  0
   50.0055   54.2009   -2.6583 H   0  0  0  0  0  0  0  0  0  0  0  0
   52.2908   49.3939   -6.9336 H   0  0  0  0  0  0  0  0  0  0  0  0
   56.8396   53.3401   -0.6024 H   0  0  0  0  0  0  0  0  0  0  0  0
   56.4537   49.4261    1.1812 H   0  0  0  0  0  0  0  0  0  0  0  0
   50.3367   45.9867   -8.4955 H   0  0  0  0  0  0  0  0  0  0  0  0
   47.4787   49.9454   -2.8710 H   0  0  0  0  0  0  0  0  0  0  0  0
   47.7176   54.1569   -3.5791 H   0  0  0  0  0  0  0  0  0  0  0  0
   49.0662   46.0220   -5.1113 H   0  0  0  0  0  0  0  0  0  0  0  0
   47.9600   47.0914   -6.0077 H   0  0  0  0  0  0  0  0  0  0  0  0
   48.5287   45.5756   -6.7493 H   0  0  0  0  0  0  0  0  0  0  0  0
   47.7926   54.6653   -6.2281 H   0  0  0  0  0  0  0  0  0  0  0  0
   47.8205   57.1627   -7.0566 H   0  0  0  0  0  0  0  0  0  0  0  0
   57.5367   52.8674    1.4173 H   0  0  0  0  0  0  0  0  0  0  0  0
   51.4787   58.1102   -7.7663 H   0  0  0  0  0  0  0  0  0  0  0  0
   50.0330   58.8997   -6.9567 H   0  0  0  0  0  0  0  0  0  0  0  0
   46.1616   50.2452   -4.8692 H   0  0  0  0  0  0  0  0  0  0  0  0
   45.4911   50.1600   -3.2217 H   0  0  0  0  0  0  0  0  0  0  0  0
   44.5369   50.8929   -4.5346 H   0  0  0  0  0  0  0  0  0  0  0  0
   50.2443   59.2937   -9.0442 H   0  0  0  0  0  0  0  0  0  0  0  0
  1  2  2  0  0  0  0
  1  3  2  0  0  0  0
  1  8  1  0  0  0  0
  1 22  1  0  0  0  0
  4 30  1  0  0  0  0
  4 41  1  0  0  0  0
  5 37  1  0  0  0  0
  5 72  1  0  0  0  0
  6 40  1  0  0  0  0
  6 44  1  0  0  0  0
  7 43  1  0  0  0  0
  7 78  1  0  0  0  0
  8 12  1  0  0  0  0
  8 14  1  0  0  0  0
  9 13  1  0  0  0  0
  9 17  1  0  0  0  0
  9 18  1  0  0  0  0
 10 23  1  0  0  0  0
 10 34  1  0  0  0  0
 10 38  1  0  0  0  0
 11 31  1  0  0  0  0
 11 34  2  0  0  0  0
 12 13  1  0  0  0  0
 12 15  1  0  0  0  0
 12 45  1  0  0  0  0
 13 46  1  0  0  0  0
 13 47  1  0  0  0  0
 14 16  1  0  0  0  0
 14 48  1  0  0  0  0
 14 49  1  0  0  0  0
 15 19  1  0  0  0  0
 15 50  1  0  0  0  0
 15 51  1  0  0  0  0
 16 17  2  0  0  0  0
 16 20  1  0  0  0  0
 17 21  1  0  0  0  0
 18 23  1  0  0  0  0
 18 52  1  0  0  0  0
 18 53  1  0  0  0  0
 19 26  2  0  0  0  0
 19 27  1  0  0  0  0
 20 24  2  0  0  0  0
 20 54  1  0  0  0  0
 21 25  2  0  0  0  0
 21 55  1  0  0  0  0
 22 28  2  0  0  0  0
 22 29  1  0  0  0  0
 23 31  2  0  0  0  0
 24 25  1  0  0  0  0
 24 30  1  0  0  0  0
 25 56  1  0  0  0  0
 26 32  1  0  0  0  0
 26 57  1  0  0  0  0
 27 33  2  0  0  0  0
 27 58  1  0  0  0  0
 28 35  1  0  0  0  0
 28 59  1  0  0  0  0
 29 36  2  0  0  0  0
 29 60  1  0  0  0  0
 30 39  2  0  0  0  0
 31 61  1  0  0  0  0
 32 37  2  0  0  0  0
 32 62  1  0  0  0  0
 33 37  1  0  0  0  0
 33 63  1  0  0  0  0
 34 64  1  0  0  0  0
 35 40  2  0  0  0  0
 35 65  1  0  0  0  0
 36 40  1  0  0  0  0
 36 66  1  0  0  0  0
 38 67  1  0  0  0  0
 38 68  1  0  0  0  0
 38 69  1  0  0  0  0
 39 42  1  0  0  0  0
 39 70  1  0  0  0  0
 41 42  2  0  0  0  0
 41 43  1  0  0  0  0
 42 71  1  0  0  0  0
 43 73  1  0  0  0  0
 43 74  1  0  0  0  0
 44 75  1  0  0  0  0
 44 76  1  0  0  0  0
 44 77  1  0  0  0  0
M  END
> <PUBCHEM_COMPOUND_ID_TYPE>
0

> <PUBCHEM_TOTAL_CHARGE>
0

> <PUBCHEM_SUBSTANCE_ID>
170485098

> <PUBCHEM_SUBSTANCE_VERSION>
1

> <PUBCHEM_EXT_DATASOURCE_NAME>
Shanghai Institute of Organic Chemistry

> <PUBCHEM_EXT_DATASOURCE_REGID>
4gtp

> <PUBCHEM_SUBSTANCE_COMMENT>
PDB code 4gtp, binding affinity data from PDBbind-CN database: IC50=11.4nM

> <PUBCHEM_SUBSTANCE_SYNONYM>
4gtp

> <PUBCHEM_XREF_EXT_ID>
4gtp

> <PUBCHEM_EXT_DATASOURCE_URL>
http://www.sioc-ccbg.ac.cn/

> <PUBCHEM_EXT_SUBSTANCE_URL>
http://www.pdbbind-cn.org/quickpdb.asp?quickpdb=4gtp

> <PUBCHEM_CID_ASSOCIATIONS>
66545762  1

> <PUBCHEM_CONFORMER_ID>
0A29656A00010001

> <PUBCHEM_COORDINATE_TYPE>
2
3
4

$$$$
170485097
  -OEChem-11262106393D

 74 78  0     1  0  0  0  0  0999 V2000
  -18.6730   71.2380    6.1800 S   0  0  0  0  0  0  0  0  0  0  0  0
  -13.8100   79.1240    4.5530 S   0  0  0  0  0  0  0  0  0  0  0  0
  -14.0780   78.7760    7.1200 F   0  0  0  0  0  0  0  0  0  0  0  0
  -12.6980   80.3950    6.5050 F   0  0  0  0  0  0  0  0  0  0  0  0
  -14.8410   80.6680    6.3580 F   0  0  0  0  0  0  0  0  0  0  0  0
  -17.8220   70.8400    7.3510 O   0  0  0  0  0  0  0  0  0  0  0  0
  -19.8010   72.0940    6.6750 O   0  0  0  0  0  0  0  0  0  0  0  0
  -15.0440   78.2950    4.2860 O   0  0  0  0  0  0  0  0  0  0  0  0
  -21.2820   66.5610    3.6500 O   0  0  0  0  0  0  0  0  0  0  0  0
  -13.7970   80.3270    3.6630 O   0  0  0  0  0  0  0  0  0  0  0  0
  -12.5160   78.4010    4.3390 O   0  0  0  0  0  0  0  0  0  0  0  0
  -17.7060   72.2360    5.1890 N   0  0  1  0  0  0  0  0  0  0  0  0
  -16.9910   70.3310    2.9170 N   0  0  3  0  0  0  0  0  0  0  0  0
  -15.0120   67.7750    1.0360 N   0  0  0  0  0  0  0  0  0  0  0  0
  -15.0140   69.1590   -0.5990 N   0  0  0  0  0  0  0  0  0  0  0  0
  -23.0010   71.9300    0.5150 N   0  0  0  0  0  0  0  0  0  0  0  0
  -16.3420   71.6850    4.9500 C   0  0  1  0  0  0  0  0  0  0  0  0
  -16.0040   71.2650    3.4960 C   0  0  0  0  0  0  0  0  0  0  0  0
  -18.3830   72.8560    4.0240 C   0  0  0  0  0  0  0  0  0  0  0  0
  -15.2640   72.6280    5.5570 C   0  0  0  0  0  0  0  0  0  0  0  0
  -18.2070   70.7340    2.5220 C   0  0  0  0  0  0  0  0  0  0  0  0
  -18.8780   71.8650    2.9830 C   0  0  0  0  0  0  0  0  0  0  0  0
  -16.5540   68.9260    2.7160 C   0  0  0  0  0  0  0  0  0  0  0  0
  -15.2590   74.1440    5.2280 C   0  0  0  0  0  0  0  0  0  0  0  0
  -20.1350   72.2100    2.4880 C   0  0  0  0  0  0  0  0  0  0  0  0
  -18.8040   69.9360    1.5440 C   0  0  0  0  0  0  0  0  0  0  0  0
  -19.3970   69.8070    5.4360 C   0  0  0  0  0  0  0  0  0  0  0  0
  -15.7930   68.7940    1.3870 C   0  0  0  0  0  0  0  0  0  0  0  0
  -20.7030   71.4190    1.5120 C   0  0  0  0  0  0  0  0  0  0  0  0
  -20.0460   70.2900    1.0450 C   0  0  0  0  0  0  0  0  0  0  0  0
  -14.4610   74.6130    4.1840 C   0  0  0  0  0  0  0  0  0  0  0  0
  -15.9680   75.0860    5.9850 C   0  0  0  0  0  0  0  0  0  0  0  0
  -18.7430   68.5740    5.3720 C   0  0  0  0  0  0  0  0  0  0  0  0
  -20.6870   69.9300    4.9230 C   0  0  0  0  0  0  0  0  0  0  0  0
  -15.7880   69.6570    0.3640 C   0  0  0  0  0  0  0  0  0  0  0  0
  -14.3990   75.9810    3.8720 C   0  0  0  0  0  0  0  0  0  0  0  0
  -15.9020   76.4590    5.6690 C   0  0  0  0  0  0  0  0  0  0  0  0
  -15.1040   76.9360    4.6130 C   0  0  0  0  0  0  0  0  0  0  0  0
  -14.5290   67.9830   -0.1800 C   0  0  0  0  0  0  0  0  0  0  0  0
  -19.3780   67.4880    4.7640 C   0  0  0  0  0  0  0  0  0  0  0  0
  -21.3180   68.8530    4.3200 C   0  0  0  0  0  0  0  0  0  0  0  0
  -14.7220   66.5680    1.8860 C   0  0  0  0  0  0  0  0  0  0  0  0
  -20.6650   67.6250    4.2380 C   0  0  0  0  0  0  0  0  0  0  0  0
  -21.9840   71.7160    0.9700 C   0  0  0  0  0  0  0  0  0  0  0  0
  -22.5130   66.9580    3.0170 C   0  0  0  0  0  0  0  0  0  0  0  0
  -13.8560   79.7780    6.2590 C   0  0  0  0  0  0  0  0  0  0  0  0
  -16.3362   70.7295    5.4745 H   0  0  0  0  0  0  0  0  0  0  0  0
  -16.0026   72.1664    2.8832 H   0  0  0  0  0  0  0  0  0  0  0  0
  -15.0395   70.7576    3.5141 H   0  0  0  0  0  0  0  0  0  0  0  0
  -17.6505   73.4963    3.5325 H   0  0  0  0  0  0  0  0  0  0  0  0
  -19.2581   73.3819    4.4058 H   0  0  0  0  0  0  0  0  0  0  0  0
  -14.3256   72.2623    5.1403 H   0  0  0  0  0  0  0  0  0  0  0  0
  -15.4506   72.5893    6.6302 H   0  0  0  0  0  0  0  0  0  0  0  0
  -17.4308   68.2788    2.6918 H   0  0  0  0  0  0  0  0  0  0  0  0
  -15.8961   68.6355    3.5351 H   0  0  0  0  0  0  0  0  0  0  0  0
  -20.6586   73.0883    2.8655 H   0  0  0  0  0  0  0  0  0  0  0  0
  -18.2973   69.0434    1.1771 H   0  0  0  0  0  0  0  0  0  0  0  0
  -20.5130   69.6744    0.2762 H   0  0  0  0  0  0  0  0  0  0  0  0
  -13.8745   73.9042    3.5994 H   0  0  0  0  0  0  0  0  0  0  0  0
  -16.5765   74.7545    6.8264 H   0  0  0  0  0  0  0  0  0  0  0  0
  -17.7443   68.4601    5.7935 H   0  0  0  0  0  0  0  0  0  0  0  0
  -21.2065   70.8854    4.9969 H   0  0  0  0  0  0  0  0  0  0  0  0
  -16.3251   70.6047    0.3255 H   0  0  0  0  0  0  0  0  0  0  0  0
  -13.7863   76.3070    3.0315 H   0  0  0  0  0  0  0  0  0  0  0  0
  -16.4838   77.1683    6.2577 H   0  0  0  0  0  0  0  0  0  0  0  0
  -13.8629   67.3221   -0.7346 H   0  0  0  0  0  0  0  0  0  0  0  0
  -18.8660   66.5279    4.6997 H   0  0  0  0  0  0  0  0  0  0  0  0
  -22.3220   68.9666    3.9112 H   0  0  0  0  0  0  0  0  0  0  0  0
  -14.2487   66.8849    2.8153 H   0  0  0  0  0  0  0  0  0  0  0  0
  -15.6547   66.0503    2.1099 H   0  0  0  0  0  0  0  0  0  0  0  0
  -14.0532   65.8974    1.3464 H   0  0  0  0  0  0  0  0  0  0  0  0
  -23.1844   67.3809    3.7643 H   0  0  0  0  0  0  0  0  0  0  0  0
  -22.3021   67.7051    2.2518 H   0  0  0  0  0  0  0  0  0  0  0  0
  -22.9810   66.0874    2.5574 H   0  0  0  0  0  0  0  0  0  0  0  0
  1  6  2  0  0  0  0
  1  7  2  0  0  0  0
  1 12  1  0  0  0  0
  1 27  1  0  0  0  0
  2  8  1  0  0  0  0
  2 10  2  0  0  0  0
  2 11  2  0  0  0  0
  2 46  1  0  0  0  0
  3 46  1  0  0  0  0
  4 46  1  0  0  0  0
  5 46  1  0  0  0  0
  8 38  1  0  0  0  0
  9 43  1  0  0  0  0
  9 45  1  0  0  0  0
 12 17  1  0  0  0  0
 12 19  1  0  0  0  0
 13 18  1  0  0  0  0
 13 21  1  0  0  0  0
 13 23  1  0  0  0  0
 14 28  1  0  0  0  0
 14 39  1  0  0  0  0
 14 42  1  0  0  0  0
 15 35  1  0  0  0  0
 15 39  2  0  0  0  0
 16 44  3  0  0  0  0
 17 18  1  0  0  0  0
 17 20  1  0  0  0  0
 17 47  1  0  0  0  0
 18 48  1  0  0  0  0
 18 49  1  0  0  0  0
 19 22  1  0  0  0  0
 19 50  1  0  0  0  0
 19 51  1  0  0  0  0
 20 24  1  0  0  0  0
 20 52  1  0  0  0  0
 20 53  1  0  0  0  0
 21 22  2  0  0  0  0
 21 26  1  0  0  0  0
 22 25  1  0  0  0  0
 23 28  1  0  0  0  0
 23 54  1  0  0  0  0
 23 55  1  0  0  0  0
 24 31  2  0  0  0  0
 24 32  1  0  0  0  0
 25 29  2  0  0  0  0
 25 56  1  0  0  0  0
 26 30  2  0  0  0  0
 26 57  1  0  0  0  0
 27 33  2  0  0  0  0
 27 34  1  0  0  0  0
 28 35  2  0  0  0  0
 29 30  1  0  0  0  0
 29 44  1  0  0  0  0
 30 58  1  0  0  0  0
 31 36  1  0  0  0  0
 31 59  1  0  0  0  0
 32 37  2  0  0  0  0
 32 60  1  0  0  0  0
 33 40  1  0  0  0  0
 33 61  1  0  0  0  0
 34 41  2  0  0  0  0
 34 62  1  0  0  0  0
 35 63  1  0  0  0  0
 36 38  2  0  0  0  0
 36 64  1  0  0  0  0
 37 38  1  0  0  0  0
 37 65  1  0  0  0  0
 39 66  1  0  0  0  0
 40 43  2  0  0  0  0
 40 67  1  0  0  0  0
 41 43  1  0  0  0  0
 41 68  1  0  0  0  0
 42 69  1  0  0  0  0
 42 70  1  0  0  0  0
 42 71  1  0  0  0  0
 45 72  1  0  0  0  0
 45 73  1  0  0  0  0
 45 74  1  0  0  0  0
M  END
> <PUBCHEM_COMPOUND_ID_TYPE>
0

> <PUBCHEM_TOTAL_CHARGE>
0

> <PUBCHEM_SUBSTANCE_ID>
170485097

> <PUBCHEM_SUBSTANCE_VERSION>
1

> <PUBCHEM_EXT_DATASOURCE_NAME>
Shanghai Institute of Organic Chemistry

> <PUBCHEM_EXT_DATASOURCE_REGID>
4gto

> <PUBCHEM_SUBSTANCE_COMMENT>
PDB code 4gto, binding affinity data from PDBbind-CN database: IC50=10.5nM

> <PUBCHEM_SUBSTANCE_SYNONYM>
4gto

> <PUBCHEM_XREF_EXT_ID>
4gto

> <PUBCHEM_EXT_DATASOURCE_URL>
http://www.sioc-ccbg.ac.cn/

> <PUBCHEM_EXT_SUBSTANCE_URL>
http://www.pdbbind-cn.org/quickpdb.asp?quickpdb=4gto

> <PUBCHEM_CID_ASSOCIATIONS>
66545761  1

> <PUBCHEM_CONFORMER_ID>
0A29656900010001

> <PUBCHEM_COORDINATE_TYPE>
2
3
4

$$$$
170485096
  -OEChem-11262106393D

 90 94  0     1  0  0  0  0  0999 V2000
   52.0590  -52.2290    1.5620 S   0  0  0  0  0  0  0  0  0  0  0  0
   52.0830  -51.1510    0.5050 O   0  0  0  0  0  0  0  0  0  0  0  0
   52.4040  -53.5640    0.9360 O   0  0  0  0  0  0  0  0  0  0  0  0
   57.9850  -51.7630   -1.1250 O   0  0  0  0  0  0  0  0  0  0  0  0
   46.5320  -52.3480    3.7680 O   0  0  0  0  0  0  0  0  0  0  0  0
   58.6190  -53.8730   -1.0140 O   0  0  0  0  0  0  0  0  0  0  0  0
   53.2470  -51.8800    2.7300 N   0  0  1  0  0  0  0  0  0  0  0  0
   51.5290  -50.5700    4.9010 N   0  0  3  0  0  0  0  0  0  0  0  0
   50.1580  -47.7750    6.8590 N   0  0  0  0  0  0  0  0  0  0  0  0
   51.8730  -47.9900    8.1020 N   0  0  0  0  0  0  0  0  0  0  0  0
   51.0340  -56.8150    7.3390 N   0  0  0  0  0  0  0  0  0  0  0  0
   56.4570  -53.4420   -1.6770 N   0  0  0  0  0  0  0  0  0  0  0  0
   53.3540  -50.4240    3.0720 C   0  0  1  0  0  0  0  0  0  0  0  0
   52.7680  -49.9580    4.4000 C   0  0  0  0  0  0  0  0  0  0  0  0
   53.3770  -52.8390    3.8510 C   0  0  0  0  0  0  0  0  0  0  0  0
   54.8440  -50.0530    3.2260 C   0  0  0  0  0  0  0  0  0  0  0  0
   51.4310  -51.8400    5.3270 C   0  0  0  0  0  0  0  0  0  0  0  0
   52.2500  -52.8800    4.8990 C   0  0  0  0  0  0  0  0  0  0  0  0
   50.4930  -49.5680    5.0700 C   0  0  0  0  0  0  0  0  0  0  0  0
   55.6910  -50.5180    2.0710 C   0  0  0  0  0  0  0  0  0  0  0  0
   52.0970  -54.1520    5.4390 C   0  0  0  0  0  0  0  0  0  0  0  0
   50.4720  -52.0890    6.3300 C   0  0  0  0  0  0  0  0  0  0  0  0
   50.3920  -52.2850    2.2110 C   0  0  0  0  0  0  0  0  0  0  0  0
   50.8770  -48.7550    6.3270 C   0  0  0  0  0  0  0  0  0  0  0  0
   51.1500  -54.4010    6.4260 C   0  0  0  0  0  0  0  0  0  0  0  0
   50.3320  -53.3610    6.8710 C   0  0  0  0  0  0  0  0  0  0  0  0
   56.4510  -51.6680    2.2100 C   0  0  0  0  0  0  0  0  0  0  0  0
   55.6830  -49.7830    0.8920 C   0  0  0  0  0  0  0  0  0  0  0  0
   49.8470  -53.4680    2.7210 C   0  0  0  0  0  0  0  0  0  0  0  0
   49.6210  -51.1290    2.2260 C   0  0  0  0  0  0  0  0  0  0  0  0
   51.9550  -48.8830    7.1050 C   0  0  0  0  0  0  0  0  0  0  0  0
   57.2150  -52.0940    1.1330 C   0  0  0  0  0  0  0  0  0  0  0  0
   56.4590  -50.1980   -0.1860 C   0  0  0  0  0  0  0  0  0  0  0  0
   57.2310  -51.3490   -0.0610 C   0  0  0  0  0  0  0  0  0  0  0  0
   50.7560  -47.2900    7.9460 C   0  0  0  0  0  0  0  0  0  0  0  0
   48.5600  -53.5090    3.2580 C   0  0  0  0  0  0  0  0  0  0  0  0
   48.3350  -51.1670    2.7570 C   0  0  0  0  0  0  0  0  0  0  0  0
   48.8630  -47.3070    6.3050 C   0  0  0  0  0  0  0  0  0  0  0  0
   47.8020  -52.3460    3.2700 C   0  0  0  0  0  0  0  0  0  0  0  0
   51.0500  -55.7410    6.9490 C   0  0  0  0  0  0  0  0  0  0  0  0
   56.2760  -55.2790   -3.3110 C   0  0  0  0  0  0  0  0  0  0  0  0
   56.0070  -56.7900   -3.5000 C   0  0  0  0  0  0  0  0  0  0  0  0
   57.7020  -53.0910   -1.2820 C   0  0  0  0  0  0  0  0  0  0  0  0
   55.9700  -54.8110   -1.8780 C   0  0  0  0  0  0  0  0  0  0  0  0
   56.4990  -57.5470   -2.2700 C   0  0  0  0  0  0  0  0  0  0  0  0
   56.7320  -59.0250   -2.4830 C   0  0  0  0  0  0  0  0  0  0  0  0
   46.5170  -52.6240    5.1730 C   0  0  0  0  0  0  0  0  0  0  0  0
   57.4680  -59.6270   -1.2570 C   0  0  0  0  0  0  0  0  0  0  0  0
   52.7962  -49.9590    2.2592 H   0  0  0  0  0  0  0  0  0  0  0  0
   52.5122  -48.9111    4.2366 H   0  0  0  0  0  0  0  0  0  0  0  0
   53.5236  -50.2179    5.1414 H   0  0  0  0  0  0  0  0  0  0  0  0
   53.3792  -53.8263    3.3890 H   0  0  0  0  0  0  0  0  0  0  0  0
   54.2684  -52.5286    4.3961 H   0  0  0  0  0  0  0  0  0  0  0  0
   54.9118  -48.9660    3.2699 H   0  0  0  0  0  0  0  0  0  0  0  0
   55.2155  -50.5414    4.1269 H   0  0  0  0  0  0  0  0  0  0  0  0
   49.5139  -50.0323    5.1874 H   0  0  0  0  0  0  0  0  0  0  0  0
   50.4232  -48.9245    4.1930 H   0  0  0  0  0  0  0  0  0  0  0  0
   52.7287  -54.9659    5.0833 H   0  0  0  0  0  0  0  0  0  0  0  0
   49.8358  -51.2777    6.6836 H   0  0  0  0  0  0  0  0  0  0  0  0
   49.5843  -53.5467    7.6421 H   0  0  0  0  0  0  0  0  0  0  0  0
   56.4488  -52.2265    3.1460 H   0  0  0  0  0  0  0  0  0  0  0  0
   55.0711  -48.8845    0.8117 H   0  0  0  0  0  0  0  0  0  0  0  0
   50.4427  -54.3806    2.6983 H   0  0  0  0  0  0  0  0  0  0  0  0
   50.0210  -50.1980    1.8243 H   0  0  0  0  0  0  0  0  0  0  0  0
   52.7665  -49.5950    6.9546 H   0  0  0  0  0  0  0  0  0  0  0  0
   57.8041  -53.0077    1.2118 H   0  0  0  0  0  0  0  0  0  0  0  0
   56.4621  -49.6291   -1.1158 H   0  0  0  0  0  0  0  0  0  0  0  0
   50.3990  -46.4793    8.5812 H   0  0  0  0  0  0  0  0  0  0  0  0
   48.1567  -54.4379    3.6611 H   0  0  0  0  0  0  0  0  0  0  0  0
   47.7346  -50.2573    2.7714 H   0  0  0  0  0  0  0  0  0  0  0  0
   49.0130  -46.9498    5.2862 H   0  0  0  0  0  0  0  0  0  0  0  0
   48.1514  -48.1327    6.3008 H   0  0  0  0  0  0  0  0  0  0  0  0
   48.4769  -46.4961    6.9226 H   0  0  0  0  0  0  0  0  0  0  0  0
   55.6270  -54.7303   -3.9935 H   0  0  0  0  0  0  0  0  0  0  0  0
   57.3315  -55.0942   -3.5107 H   0  0  0  0  0  0  0  0  0  0  0  0
   54.9375  -56.9572   -3.6280 H   0  0  0  0  0  0  0  0  0  0  0  0
   56.5354  -57.1471   -4.3840 H   0  0  0  0  0  0  0  0  0  0  0  0
   56.4693  -55.4745   -1.1718 H   0  0  0  0  0  0  0  0  0  0  0  0
   54.8920  -54.8332   -1.7181 H   0  0  0  0  0  0  0  0  0  0  0  0
   57.4603  -57.1125   -1.9958 H   0  0  0  0  0  0  0  0  0  0  0  0
   55.7211  -57.4564   -1.5118 H   0  0  0  0  0  0  0  0  0  0  0  0
   55.7958  -52.6851   -1.8512 H   0  0  0  0  0  0  0  0  0  0  0  0
   55.7717  -59.5257   -2.6067 H   0  0  0  0  0  0  0  0  0  0  0  0
   57.3432  -59.1673   -3.3742 H   0  0  0  0  0  0  0  0  0  0  0  0
   46.9598  -53.6034    5.3543 H   0  0  0  0  0  0  0  0  0  0  0  0
   47.0918  -51.8611    5.6980 H   0  0  0  0  0  0  0  0  0  0  0  0
   45.4880  -52.6169    5.5324 H   0  0  0  0  0  0  0  0  0  0  0  0
   58.4277  -59.1263   -1.1291 H   0  0  0  0  0  0  0  0  0  0  0  0
   56.8602  -59.4838   -0.3636 H   0  0  0  0  0  0  0  0  0  0  0  0
   57.6313  -60.6923   -1.4200 H   0  0  0  0  0  0  0  0  0  0  0  0
  1  2  2  0  0  0  0
  1  3  2  0  0  0  0
  1  7  1  0  0  0  0
  1 23  1  0  0  0  0
  4 34  1  0  0  0  0
  4 43  1  0  0  0  0
  5 39  1  0  0  0  0
  5 47  1  0  0  0  0
  6 43  2  0  0  0  0
  7 13  1  0  0  0  0
  7 15  1  0  0  0  0
  8 14  1  0  0  0  0
  8 17  1  0  0  0  0
  8 19  1  0  0  0  0
  9 24  1  0  0  0  0
  9 35  1  0  0  0  0
  9 38  1  0  0  0  0
 10 31  1  0  0  0  0
 10 35  2  0  0  0  0
 11 40  3  0  0  0  0
 12 43  1  0  0  0  0
 12 44  1  0  0  0  0
 12 82  1  0  0  0  0
 13 14  1  0  0  0  0
 13 16  1  0  0  0  0
 13 49  1  0  0  0  0
 14 50  1  0  0  0  0
 14 51  1  0  0  0  0
 15 18  1  0  0  0  0
 15 52  1  0  0  0  0
 15 53  1  0  0  0  0
 16 20  1  0  0  0  0
 16 54  1  0  0  0  0
 16 55  1  0  0  0  0
 17 18  2  0  0  0  0
 17 22  1  0  0  0  0
 18 21  1  0  0  0  0
 19 24  1  0  0  0  0
 19 56  1  0  0  0  0
 19 57  1  0  0  0  0
 20 27  2  0  0  0  0
 20 28  1  0  0  0  0
 21 25  2  0  0  0  0
 21 58  1  0  0  0  0
 22 26  2  0  0  0  0
 22 59  1  0  0  0  0
 23 29  2  0  0  0  0
 23 30  1  0  0  0  0
 24 31  2  0  0  0  0
 25 26  1  0  0  0  0
 25 40  1  0  0  0  0
 26 60  1  0  0  0  0
 27 32  1  0  0  0  0
 27 61  1  0  0  0  0
 28 33  2  0  0  0  0
 28 62  1  0  0  0  0
 29 36  1  0  0  0  0
 29 63  1  0  0  0  0
 30 37  2  0  0  0  0
 30 64  1  0  0  0  0
 31 65  1  0  0  0  0
 32 34  2  0  0  0  0
 32 66  1  0  0  0  0
 33 34  1  0  0  0  0
 33 67  1  0  0  0  0
 35 68  1  0  0  0  0
 36 39  2  0  0  0  0
 36 69  1  0  0  0  0
 37 39  1  0  0  0  0
 37 70  1  0  0  0  0
 38 71  1  0  0  0  0
 38 72  1  0  0  0  0
 38 73  1  0  0  0  0
 41 42  1  0  0  0  0
 41 44  1  0  0  0  0
 41 74  1  0  0  0  0
 41 75  1  0  0  0  0
 42 45  1  0  0  0  0
 42 76  1  0  0  0  0
 42 77  1  0  0  0  0
 44 78  1  0  0  0  0
 44 79  1  0  0  0  0
 45 46  1  0  0  0  0
 45 80  1  0  0  0  0
 45 81  1  0  0  0  0
 46 48  1  0  0  0  0
 46 83  1  0  0  0  0
 46 84  1  0  0  0  0
 47 85  1  0  0  0  0
 47 86  1  0  0  0  0
 47 87  1  0  0  0  0
 48 88  1  0  0  0  0
 48 89  1  0  0  0  0
 48 90  1  0  0  0  0
M  END
> <PUBCHEM_COMPOUND_ID_TYPE>
0

> <PUBCHEM_TOTAL_CHARGE>
0

> <PUBCHEM_SUBSTANCE_ID>
170485096

> <PUBCHEM_SUBSTANCE_VERSION>
1

> <PUBCHEM_EXT_DATASOURCE_NAME>
Shanghai Institute of Organic Chemistry

> <PUBCHEM_EXT_DATASOURCE_REGID>
4gtm

> <PUBCHEM_SUBSTANCE_COMMENT>
PDB code 4gtm, binding affinity data from PDBbind-CN database: IC50=9.2nM

> <PUBCHEM_SUBSTANCE_SYNONYM>
4gtm

> <PUBCHEM_XREF_EXT_ID>
4gtm

> <PUBCHEM_EXT_DATASOURCE_URL>
http://www.sioc-ccbg.ac.cn/

> <PUBCHEM_EXT_SUBSTANCE_URL>
http://www.pdbbind-cn.org/quickpdb.asp?quickpdb=4gtm

> <PUBCHEM_CID_ASSOCIATIONS>
66545760  1

> <PUBCHEM_CONFORMER_ID>
0A29656800010001

> <PUBCHEM_COORDINATE_TYPE>
2
3
4

$$$$
170485095
  -OEChem-11262106393D

 59 62  0     1  0  0  0  0  0999 V2000
   12.9850   -0.8360   23.7730 F   0  0  0  0  0  0  0  0  0  0  0  0
   13.8170    0.7830   24.8620 F   0  0  0  0  0  0  0  0  0  0  0  0
   14.4680   -1.2260   25.3200 F   0  0  0  0  0  0  0  0  0  0  0  0
    5.0370    1.9130   23.9200 O   0  0  0  0  0  0  0  0  0  0  0  0
   11.0090    1.3360   28.7760 O   0  0  0  0  0  0  0  0  0  0  0  0
    6.8100   -1.8800   22.0620 O   0  0  0  0  0  0  0  0  0  0  0  0
   11.2710   -0.6930   30.9910 O   0  5  0  0  0  0  0  0  0  0  0  0
   11.2560    0.9120   32.6250 O   0  0  0  0  0  0  0  0  0  0  0  0
    5.4320    2.2550   28.3390 N   0  3  1  0  0  0  0  0  0  0  0  0
    5.5030    0.1180   25.3030 N   0  0  0  0  0  0  0  0  0  0  0  0
    5.8600   -0.0090   23.0080 N   0  0  0  0  0  0  0  0  0  0  0  0
    4.9600    0.8100   26.4490 C   0  0  1  0  0  0  0  0  0  0  0  0
    4.0370   -0.0500   27.3240 C   0  0  0  0  0  0  0  0  0  0  0  0
    6.0520    1.4770   27.2550 C   0  0  0  0  0  0  0  0  0  0  0  0
    3.5580    0.6920   28.5700 C   0  0  0  0  0  0  0  0  0  0  0  0
    4.7240    1.3610   29.2750 C   0  0  0  0  0  0  0  0  0  0  0  0
    6.4640    3.0610   28.9950 C   0  0  0  0  0  0  0  0  0  0  0  0
    6.0440   -1.1570   25.4220 C   0  0  0  0  0  0  0  0  0  0  0  0
    7.6270    2.3630   29.6260 C   0  0  0  0  0  0  0  0  0  0  0  0
    5.4290    0.7530   24.0690 C   0  0  0  0  0  0  0  0  0  0  0  0
    6.5210   -1.8920   24.4060 C   0  0  0  0  0  0  0  0  0  0  0  0
    8.7880    2.1430   28.9040 C   0  0  0  0  0  0  0  0  0  0  0  0
    7.5450    1.9700   30.9520 C   0  0  0  0  0  0  0  0  0  0  0  0
    6.4170   -1.2840   23.0520 C   0  0  0  0  0  0  0  0  0  0  0  0
    7.1030   -3.2620   24.5520 C   0  0  0  0  0  0  0  0  0  0  0  0
    9.8450    1.4950   29.5070 C   0  0  0  0  0  0  0  0  0  0  0  0
    8.5930    1.3120   31.5470 C   0  0  0  0  0  0  0  0  0  0  0  0
    9.7440    1.0760   30.8280 C   0  0  0  0  0  0  0  0  0  0  0  0
   10.8300    0.4440   31.5790 C   0  0  0  0  0  0  0  0  0  0  0  0
   11.0990    0.2680   27.8950 C   0  0  0  0  0  0  0  0  0  0  0  0
   12.1160    0.3760   26.9800 C   0  0  0  0  0  0  0  0  0  0  0  0
   10.2620   -0.8360   27.9070 C   0  0  0  0  0  0  0  0  0  0  0  0
   12.2990   -0.6310   26.0460 C   0  0  0  0  0  0  0  0  0  0  0  0
   10.4360   -1.8490   26.9760 C   0  0  0  0  0  0  0  0  0  0  0  0
   11.4580   -1.7330   26.0560 C   0  0  0  0  0  0  0  0  0  0  0  0
   13.3780   -0.4880   25.0290 C   0  0  0  0  0  0  0  0  0  0  0  0
    4.3130    1.5890   26.0457 H   0  0  0  0  0  0  0  0  0  0  0  0
    3.1611   -0.3146   26.7316 H   0  0  0  0  0  0  0  0  0  0  0  0
    4.5994   -0.9255   27.6483 H   0  0  0  0  0  0  0  0  0  0  0  0
    6.6348    2.1372   26.6127 H   0  0  0  0  0  0  0  0  0  0  0  0
    6.7156    0.7212   27.6752 H   0  0  0  0  0  0  0  0  0  0  0  0
    3.0967   -0.0230   29.2512 H   0  0  0  0  0  0  0  0  0  0  0  0
    2.8402    1.4562   28.2718 H   0  0  0  0  0  0  0  0  0  0  0  0
    5.4138    0.5966   29.6328 H   0  0  0  0  0  0  0  0  0  0  0  0
    4.3484    1.9453   30.1150 H   0  0  0  0  0  0  0  0  0  0  0  0
    6.8958    3.6697   28.2006 H   0  0  0  0  0  0  0  0  0  0  0  0
    5.9529    3.5607   29.8179 H   0  0  0  0  0  0  0  0  0  0  0  0
    6.0838   -1.5942   26.4197 H   0  0  0  0  0  0  0  0  0  0  0  0
    5.7600    0.4082   22.0826 H   0  0  0  0  0  0  0  0  0  0  0  0
    8.8654    2.4786   27.8698 H   0  0  0  0  0  0  0  0  0  0  0  0
    6.6436    2.1843   31.5261 H   0  0  0  0  0  0  0  0  0  0  0  0
    7.9667   -3.2196   25.2156 H   0  0  0  0  0  0  0  0  0  0  0  0
    6.3525   -3.9313   24.9726 H   0  0  0  0  0  0  0  0  0  0  0  0
    7.4125   -3.6300   23.5738 H   0  0  0  0  0  0  0  0  0  0  0  0
    8.5147    0.9785   32.5818 H   0  0  0  0  0  0  0  0  0  0  0  0
   12.7734    1.2454   26.9879 H   0  0  0  0  0  0  0  0  0  0  0  0
    9.4664   -0.9084   28.6485 H   0  0  0  0  0  0  0  0  0  0  0  0
    9.7791   -2.7188   26.9710 H   0  0  0  0  0  0  0  0  0  0  0  0
   11.6071   -2.5246   25.3217 H   0  0  0  0  0  0  0  0  0  0  0  0
  1 36  1  0  0  0  0
  2 36  1  0  0  0  0
  3 36  1  0  0  0  0
  4 20  2  0  0  0  0
  5 26  1  0  0  0  0
  5 30  1  0  0  0  0
  6 24  2  0  0  0  0
  7 29  1  0  0  0  0
  8 29  2  0  0  0  0
  9 14  1  0  0  0  0
  9 16  1  0  0  0  0
  9 17  1  0  0  0  0
 10 12  1  0  0  0  0
 10 18  1  0  0  0  0
 10 20  1  0  0  0  0
 11 20  1  0  0  0  0
 11 24  1  0  0  0  0
 11 49  1  0  0  0  0
 12 13  1  0  0  0  0
 12 14  1  0  0  0  0
 12 37  1  0  0  0  0
 13 15  1  0  0  0  0
 13 38  1  0  0  0  0
 13 39  1  0  0  0  0
 14 40  1  0  0  0  0
 14 41  1  0  0  0  0
 15 16  1  0  0  0  0
 15 42  1  0  0  0  0
 15 43  1  0  0  0  0
 16 44  1  0  0  0  0
 16 45  1  0  0  0  0
 17 19  1  0  0  0  0
 17 46  1  0  0  0  0
 17 47  1  0  0  0  0
 18 21  2  0  0  0  0
 18 48  1  0  0  0  0
 19 22  1  0  0  0  0
 19 23  2  0  0  0  0
 21 24  1  0  0  0  0
 21 25  1  0  0  0  0
 22 26  2  0  0  0  0
 22 50  1  0  0  0  0
 23 27  1  0  0  0  0
 23 51  1  0  0  0  0
 25 52  1  0  0  0  0
 25 53  1  0  0  0  0
 25 54  1  0  0  0  0
 26 28  1  0  0  0  0
 27 28  2  0  0  0  0
 27 55  1  0  0  0  0
 28 29  1  0  0  0  0
 30 31  2  0  0  0  0
 30 32  1  0  0  0  0
 31 33  1  0  0  0  0
 31 56  1  0  0  0  0
 32 34  2  0  0  0  0
 32 57  1  0  0  0  0
 33 35  2  0  0  0  0
 33 36  1  0  0  0  0
 34 35  1  0  0  0  0
 34 58  1  0  0  0  0
 35 59  1  0  0  0  0
M  CHG  2   7  -1   9   1
M  END
> <PUBCHEM_COMPOUND_ID_TYPE>
0

> <PUBCHEM_TOTAL_CHARGE>
0

> <PUBCHEM_SUBSTANCE_ID>
170485095

> <PUBCHEM_SUBSTANCE_VERSION>
1

> <PUBCHEM_EXT_DATASOURCE_NAME>
Shanghai Institute of Organic Chemistry

> <PUBCHEM_EXT_DATASOURCE_REGID>
4gsy

> <PUBCHEM_SUBSTANCE_COMMENT>
PDB code 4gsy, binding affinity data from PDBbind-CN database: IC50=120nM

> <PUBCHEM_SUBSTANCE_SYNONYM>
4gsy

> <PUBCHEM_XREF_EXT_ID>
4gsy

> <PUBCHEM_EXT_DATASOURCE_URL>
http://www.sioc-ccbg.ac.cn/

> <PUBCHEM_EXT_SUBSTANCE_URL>
http://www.pdbbind-cn.org/quickpdb.asp?quickpdb=4gsy

> <PUBCHEM_CID_ASSOCIATIONS>
72200974  1
66545759  2

> <PUBCHEM_CONFORMER_ID>
0A29656700010001

> <PUBCHEM_COORDINATE_TYPE>
2
3
4

$$$$
170485087
  -OEChem-11262106393D

 53 56  0     1  0  0  0  0  0999 V2000
   76.8270   52.6130   45.3190 O   0  0  0  0  0  0  0  0  0  0  0  0
   76.4770   52.6740   38.6380 O   0  0  0  0  0  0  0  0  0  0  0  0
   76.1150   47.8830   34.9130 O   0  0  0  0  0  0  0  0  0  0  0  0
   79.3990   51.1290   42.0480 N   0  0  0  0  0  0  0  0  0  0  0  0
   75.8390   54.1010   40.9640 N   0  0  0  0  0  0  0  0  0  0  0  0
   76.2240   53.2700   43.1270 N   0  0  0  0  0  0  0  0  0  0  0  0
   77.5460   52.5640   41.3610 N   0  0  0  0  0  0  0  0  0  0  0  0
   79.7680   50.7290   43.0450 N   0  0  0  0  0  0  0  0  0  0  0  0
   74.6270   51.2570   39.0140 N   0  0  0  0  0  0  0  0  0  0  0  0
   78.3220   51.8900   42.2190 C   0  0  0  0  0  0  0  0  0  0  0  0
   74.8140   53.4200   40.2150 C   0  0  1  0  0  0  0  0  0  0  0  0
   78.0600   51.9070   43.5190 C   0  0  0  0  0  0  0  0  0  0  0  0
   76.5000   53.2690   41.8140 C   0  0  0  0  0  0  0  0  0  0  0  0
   79.9450   50.9160   40.8530 C   0  0  0  0  0  0  0  0  0  0  0  0
   77.0140   52.5920   43.9720 C   0  0  0  0  0  0  0  0  0  0  0  0
   79.2390   50.2060   39.8880 C   0  0  0  0  0  0  0  0  0  0  0  0
   79.0110   51.1510   44.0580 C   0  0  0  0  0  0  0  0  0  0  0  0
   73.9860   54.4640   39.4640 C   0  0  0  0  0  0  0  0  0  0  0  0
   75.4150   52.4340   39.2100 C   0  0  0  0  0  0  0  0  0  0  0  0
   81.2150   51.4020   40.5660 C   0  0  0  0  0  0  0  0  0  0  0  0
   79.7970   49.9920   38.6330 C   0  0  0  0  0  0  0  0  0  0  0  0
   77.9710   49.7160   40.1730 C   0  0  0  0  0  0  0  0  0  0  0  0
   81.7760   51.1790   39.3140 C   0  0  0  0  0  0  0  0  0  0  0  0
   75.0320   50.4630   37.9830 C   0  0  0  0  0  0  0  0  0  0  0  0
   81.0660   50.4800   38.3440 C   0  0  0  0  0  0  0  0  0  0  0  0
   76.0660   50.8090   37.1190 C   0  0  0  0  0  0  0  0  0  0  0  0
   74.3680   49.2550   37.7980 C   0  0  0  0  0  0  0  0  0  0  0  0
   76.4280   49.9500   36.0850 C   0  0  0  0  0  0  0  0  0  0  0  0
   74.7260   48.3940   36.7670 C   0  0  0  0  0  0  0  0  0  0  0  0
   75.7600   48.7430   35.9060 C   0  0  0  0  0  0  0  0  0  0  0  0
   75.7320   48.3990   33.6350 C   0  0  0  0  0  0  0  0  0  0  0  0
   74.1918   52.8548   40.9089 H   0  0  0  0  0  0  0  0  0  0  0  0
   76.0460   55.0951   40.8680 H   0  0  0  0  0  0  0  0  0  0  0  0
   75.4329   53.7740   43.4737 H   0  0  0  0  0  0  0  0  0  0  0  0
   79.1450   50.9221   45.1152 H   0  0  0  0  0  0  0  0  0  0  0  0
   73.5313   55.1488   40.1799 H   0  0  0  0  0  0  0  0  0  0  0  0
   74.6337   55.0213   38.7872 H   0  0  0  0  0  0  0  0  0  0  0  0
   73.2050   53.9634   38.8917 H   0  0  0  0  0  0  0  0  0  0  0  0
   81.7704   51.9573   41.3218 H   0  0  0  0  0  0  0  0  0  0  0  0
   79.2393   49.4414   37.8754 H   0  0  0  0  0  0  0  0  0  0  0  0
   73.8240   51.0293   39.6004 H   0  0  0  0  0  0  0  0  0  0  0  0
   77.2499   50.1545   39.4832 H   0  0  0  0  0  0  0  0  0  0  0  0
   77.9686   48.6316   40.0624 H   0  0  0  0  0  0  0  0  0  0  0  0
   77.7029   49.9787   41.1963 H   0  0  0  0  0  0  0  0  0  0  0  0
   82.7754   51.5531   39.0919 H   0  0  0  0  0  0  0  0  0  0  0  0
   81.5035   50.3152   37.3594 H   0  0  0  0  0  0  0  0  0  0  0  0
   76.5933   51.7537   37.2518 H   0  0  0  0  0  0  0  0  0  0  0  0
   73.5557   48.9796   38.4707 H   0  0  0  0  0  0  0  0  0  0  0  0
   77.2398   50.2249   35.4116 H   0  0  0  0  0  0  0  0  0  0  0  0
   74.1983   47.4495   36.6343 H   0  0  0  0  0  0  0  0  0  0  0  0
   74.6513   48.5393   33.6103 H   0  0  0  0  0  0  0  0  0  0  0  0
   76.2277   49.3551   33.4672 H   0  0  0  0  0  0  0  0  0  0  0  0
   76.0261   47.6944   32.8571 H   0  0  0  0  0  0  0  0  0  0  0  0
  1 15  2  0  0  0  0
  2 19  2  0  0  0  0
  3 30  1  0  0  0  0
  3 31  1  0  0  0  0
  4  8  1  0  0  0  0
  4 10  1  0  0  0  0
  4 14  1  0  0  0  0
  5 11  1  0  0  0  0
  5 13  1  0  0  0  0
  5 33  1  0  0  0  0
  6 13  1  0  0  0  0
  6 15  1  0  0  0  0
  6 34  1  0  0  0  0
  7 10  1  0  0  0  0
  7 13  2  0  0  0  0
  8 17  2  0  0  0  0
  9 19  1  0  0  0  0
  9 24  1  0  0  0  0
  9 41  1  0  0  0  0
 10 12  2  0  0  0  0
 11 18  1  0  0  0  0
 11 19  1  0  0  0  0
 11 32  1  0  0  0  0
 12 15  1  0  0  0  0
 12 17  1  0  0  0  0
 14 16  2  0  0  0  0
 14 20  1  0  0  0  0
 16 21  1  0  0  0  0
 16 22  1  0  0  0  0
 17 35  1  0  0  0  0
 18 36  1  0  0  0  0
 18 37  1  0  0  0  0
 18 38  1  0  0  0  0
 20 23  2  0  0  0  0
 20 39  1  0  0  0  0
 21 25  2  0  0  0  0
 21 40  1  0  0  0  0
 22 42  1  0  0  0  0
 22 43  1  0  0  0  0
 22 44  1  0  0  0  0
 23 25  1  0  0  0  0
 23 45  1  0  0  0  0
 24 26  2  0  0  0  0
 24 27  1  0  0  0  0
 25 46  1  0  0  0  0
 26 28  1  0  0  0  0
 26 47  1  0  0  0  0
 27 29  2  0  0  0  0
 27 48  1  0  0  0  0
 28 30  2  0  0  0  0
 28 49  1  0  0  0  0
 29 30  1  0  0  0  0
 29 50  1  0  0  0  0
 31 51  1  0  0  0  0
 31 52  1  0  0  0  0
 31 53  1  0  0  0  0
M  END
> <PUBCHEM_COMPOUND_ID_TYPE>
0

> <PUBCHEM_TOTAL_CHARGE>
0

> <PUBCHEM_SUBSTANCE_ID>
170485087

> <PUBCHEM_SUBSTANCE_VERSION>
1

> <PUBCHEM_EXT_DATASOURCE_NAME>
Shanghai Institute of Organic Chemistry

> <PUBCHEM_EXT_DATASOURCE_REGID>
4gh6

> <PUBCHEM_SUBSTANCE_COMMENT>
PDB code 4gh6, binding affinity data from PDBbind-CN database: IC50=0.021uM

> <PUBCHEM_SUBSTANCE_SYNONYM>
4gh6

> <PUBCHEM_XREF_EXT_ID>
4gh6

> <PUBCHEM_EXT_DATASOURCE_URL>
http://www.sioc-ccbg.ac.cn/

> <PUBCHEM_EXT_SUBSTANCE_URL>
http://www.pdbbind-cn.org/quickpdb.asp?quickpdb=4gh6

> <PUBCHEM_CID_ASSOCIATIONS>
135566753  1

> <PUBCHEM_CONFORMER_ID>
0A29655F00010001

> <PUBCHEM_COORDINATE_TYPE>
2
3
4

$$$$
170485085
  -OEChem-11262106393D

 55 58  0     0  0  0  0  0  0999 V2000
    0.5030   15.8650   27.7440 F   0  0  0  0  0  0  0  0  0  0  0  0
    2.0420   16.8300   28.8940 F   0  0  0  0  0  0  0  0  0  0  0  0
    1.8460   14.6800   28.9750 F   0  0  0  0  0  0  0  0  0  0  0  0
   -3.5250   14.3000   24.6510 O   0  0  0  0  0  0  0  0  0  0  0  0
   -1.6640   13.3320   25.5140 O   0  0  0  0  0  0  0  0  0  0  0  0
   -5.6570   18.7360   36.5620 N   0  3  0  0  0  0  0  0  0  0  0  0
   -3.5550   18.0170   34.9550 N   0  0  0  0  0  0  0  0  0  0  0  0
   -0.7200   18.4130   32.5960 N   0  0  0  0  0  0  0  0  0  0  0  0
   -2.7580   14.0970   31.4800 N   0  0  0  0  0  0  0  0  0  0  0  0
   -2.8980   13.7710   25.6550 N   0  0  0  0  0  0  0  0  0  0  0  0
   -5.9100   18.1030   35.2380 C   0  0  0  0  0  0  0  0  0  0  0  0
   -4.3840   19.4930   36.6070 C   0  0  0  0  0  0  0  0  0  0  0  0
   -4.7250   17.3410   34.7260 C   0  0  0  0  0  0  0  0  0  0  0  0
   -3.5470   19.3240   35.3850 C   0  0  0  0  0  0  0  0  0  0  0  0
   -6.2770   18.2720   37.7510 C   0  0  0  0  0  0  0  0  0  0  0  0
   -2.6120   17.6870   33.8640 C   0  0  0  0  0  0  0  0  0  0  0  0
   -2.6940   16.5240   33.1180 C   0  0  0  0  0  0  0  0  0  0  0  0
   -1.5800   18.6380   33.5670 C   0  0  0  0  0  0  0  0  0  0  0  0
   -1.7440   16.3100   32.0800 C   0  0  0  0  0  0  0  0  0  0  0  0
   -0.7690   17.2890   31.8490 C   0  0  0  0  0  0  0  0  0  0  0  0
   -1.7610   15.1220   31.2510 C   0  0  0  0  0  0  0  0  0  0  0  0
    0.1900   17.1190   30.8230 C   0  0  0  0  0  0  0  0  0  0  0  0
   -0.8270   14.9590   30.2590 C   0  0  0  0  0  0  0  0  0  0  0  0
    0.1740   15.9760   30.0300 C   0  0  0  0  0  0  0  0  0  0  0  0
   -2.8570   12.9630   30.5840 C   0  0  0  0  0  0  0  0  0  0  0  0
    1.1990   15.8200   28.9050 C   0  0  0  0  0  0  0  0  0  0  0  0
   -3.6070   13.2920   29.2920 C   0  0  0  0  0  0  0  0  0  0  0  0
   -2.8930   13.3800   28.0660 C   0  0  0  0  0  0  0  0  0  0  0  0
   -4.9910   13.5290   29.3350 C   0  0  0  0  0  0  0  0  0  0  0  0
   -3.5860   13.6900   26.9020 C   0  0  0  0  0  0  0  0  0  0  0  0
   -5.6890   13.8460   28.1600 C   0  0  0  0  0  0  0  0  0  0  0  0
   -4.9760   13.9240   26.9300 C   0  0  0  0  0  0  0  0  0  0  0  0
   -6.2692   19.5271   36.4382 H   0  0  0  0  0  0  0  0  0  0  0  0
   -6.7588   17.4101   35.3355 H   0  0  0  0  0  0  0  0  0  0  0  0
   -6.1616   18.8913   34.5133 H   0  0  0  0  0  0  0  0  0  0  0  0
   -3.8045   19.1481   37.4761 H   0  0  0  0  0  0  0  0  0  0  0  0
   -4.6184   20.5614   36.7232 H   0  0  0  0  0  0  0  0  0  0  0  0
   -4.8413   17.1847   33.6434 H   0  0  0  0  0  0  0  0  0  0  0  0
   -4.6800   16.3666   35.2344 H   0  0  0  0  0  0  0  0  0  0  0  0
   -2.5128   19.6202   35.6143 H   0  0  0  0  0  0  0  0  0  0  0  0
   -3.9441   19.9673   34.5860 H   0  0  0  0  0  0  0  0  0  0  0  0
   -5.9446   18.8856   38.6013 H   0  0  0  0  0  0  0  0  0  0  0  0
   -5.9974   17.2224   37.9248 H   0  0  0  0  0  0  0  0  0  0  0  0
   -7.3696   18.3484   37.6487 H   0  0  0  0  0  0  0  0  0  0  0  0
   -3.4664   15.7908   33.3203 H   0  0  0  0  0  0  0  0  0  0  0  0
   -1.5076   19.5505   34.1476 H   0  0  0  0  0  0  0  0  0  0  0  0
    0.9406   17.8826   30.6540 H   0  0  0  0  0  0  0  0  0  0  0  0
   -0.8400   14.0653   29.6457 H   0  0  0  0  0  0  0  0  0  0  0  0
   -3.3989   14.1745   32.2826 H   0  0  0  0  0  0  0  0  0  0  0  0
   -3.3887   12.1512   31.1019 H   0  0  0  0  0  0  0  0  0  0  0  0
   -1.8411   12.6296   30.3254 H   0  0  0  0  0  0  0  0  0  0  0  0
   -1.8231   13.2077   28.0394 H   0  0  0  0  0  0  0  0  0  0  0  0
   -5.5210   13.4668   30.2785 H   0  0  0  0  0  0  0  0  0  0  0  0
   -6.7571   14.0291   28.1882 H   0  0  0  0  0  0  0  0  0  0  0  0
   -5.5029   14.1637   26.0135 H   0  0  0  0  0  0  0  0  0  0  0  0
  1 26  1  0  0  0  0
  2 26  1  0  0  0  0
  3 26  1  0  0  0  0
  4 10  2  0  0  0  0
  5 10  2  0  0  0  0
  6 11  1  0  0  0  0
  6 12  1  0  0  0  0
  6 15  1  0  0  0  0
  6 33  1  0  0  0  0
  7 13  1  0  0  0  0
  7 14  1  0  0  0  0
  7 16  1  0  0  0  0
  8 18  1  0  0  0  0
  8 20  2  0  0  0  0
  9 21  1  0  0  0  0
  9 25  1  0  0  0  0
  9 49  1  0  0  0  0
 10 30  1  0  0  0  0
 11 13  1  0  0  0  0
 11 34  1  0  0  0  0
 11 35  1  0  0  0  0
 12 14  1  0  0  0  0
 12 36  1  0  0  0  0
 12 37  1  0  0  0  0
 13 38  1  0  0  0  0
 13 39  1  0  0  0  0
 14 40  1  0  0  0  0
 14 41  1  0  0  0  0
 15 42  1  0  0  0  0
 15 43  1  0  0  0  0
 15 44  1  0  0  0  0
 16 17  1  0  0  0  0
 16 18  2  0  0  0  0
 17 19  2  0  0  0  0
 17 45  1  0  0  0  0
 18 46  1  0  0  0  0
 19 20  1  0  0  0  0
 19 21  1  0  0  0  0
 20 22  1  0  0  0  0
 21 23  2  0  0  0  0
 22 24  2  0  0  0  0
 22 47  1  0  0  0  0
 23 24  1  0  0  0  0
 23 48  1  0  0  0  0
 24 26  1  0  0  0  0
 25 27  1  0  0  0  0
 25 50  1  0  0  0  0
 25 51  1  0  0  0  0
 27 28  1  0  0  0  0
 27 29  2  0  0  0  0
 28 30  2  0  0  0  0
 28 52  1  0  0  0  0
 29 31  1  0  0  0  0
 29 53  1  0  0  0  0
 30 32  1  0  0  0  0
 31 32  2  0  0  0  0
 31 54  1  0  0  0  0
 32 55  1  0  0  0  0
M  CHG  1   6   1
M  END
> <PUBCHEM_COMPOUND_ID_TYPE>
0

> <PUBCHEM_TOTAL_CHARGE>
1

> <PUBCHEM_SUBSTANCE_ID>
170485085

> <PUBCHEM_SUBSTANCE_VERSION>
1

> <PUBCHEM_EXT_DATASOURCE_NAME>
Shanghai Institute of Organic Chemistry

> <PUBCHEM_EXT_DATASOURCE_REGID>
4gg5

> <PUBCHEM_SUBSTANCE_COMMENT>
PDB code 4gg5, binding affinity data from PDBbind-CN database: IC50=0.93nM

> <PUBCHEM_SUBSTANCE_SYNONYM>
4gg5

> <PUBCHEM_XREF_EXT_ID>
4gg5

> <PUBCHEM_EXT_DATASOURCE_URL>
http://www.sioc-ccbg.ac.cn/

> <PUBCHEM_EXT_SUBSTANCE_URL>
http://www.pdbbind-cn.org/quickpdb.asp?quickpdb=4gg5

> <PUBCHEM_CID_ASSOCIATIONS>
72200970  1
50997095  2

> <PUBCHEM_CONFORMER_ID>
0A29655D00010001

> <PUBCHEM_COORDINATE_TYPE>
2
3
4

$$$$
170485140
  -OEChem-11262106393D

 58 61  0     1  0  0  0  0  0999 V2000
   17.9990   -1.3290    0.1160 F   0  0  0  0  0  0  0  0  0  0  0  0
   19.4430   -1.8510    1.6600 F   0  0  0  0  0  0  0  0  0  0  0  0
   18.9860    0.2180    1.2090 F   0  0  0  0  0  0  0  0  0  0  0  0
   10.1830    1.5530    0.4900 O   0  0  0  0  0  0  0  0  0  0  0  0
   16.1520    0.9850    5.0490 O   0  0  0  0  0  0  0  0  0  0  0  0
   11.8020   -2.1860   -1.4120 O   0  0  0  0  0  0  0  0  0  0  0  0
   10.6450    1.8310    4.9800 N   0  3  1  0  0  0  0  0  0  0  0  0
   10.5530   -0.2600    1.8270 N   0  0  0  0  0  0  0  0  0  0  0  0
   10.9020   -0.3320   -0.4830 N   0  0  0  0  0  0  0  0  0  0  0  0
   10.0680    0.4530    3.0050 C   0  0  2  0  0  0  0  0  0  0  0  0
   11.1830    1.1650    3.7490 C   0  0  0  0  0  0  0  0  0  0  0  0
    9.8360    0.9590    5.8930 C   0  0  0  0  0  0  0  0  0  0  0  0
    9.1670   -0.3900    3.9170 C   0  0  0  0  0  0  0  0  0  0  0  0
    8.6640    0.4130    5.1000 C   0  0  0  0  0  0  0  0  0  0  0  0
   11.6260    2.7310    5.6730 C   0  0  0  0  0  0  0  0  0  0  0  0
   12.8470    2.0370    6.1960 C   0  0  0  0  0  0  0  0  0  0  0  0
   11.0490   -1.5350    1.9670 C   0  0  0  0  0  0  0  0  0  0  0  0
   10.5260    0.3780    0.5950 C   0  0  0  0  0  0  0  0  0  0  0  0
   11.4890   -2.2390    0.9260 C   0  0  0  0  0  0  0  0  0  0  0  0
   13.9390    1.8300    5.3730 C   0  0  0  0  0  0  0  0  0  0  0  0
   12.8810    1.5860    7.5050 C   0  0  0  0  0  0  0  0  0  0  0  0
   11.4090   -1.5830   -0.4140 C   0  0  0  0  0  0  0  0  0  0  0  0
   15.0440    1.1660    5.8640 C   0  0  0  0  0  0  0  0  0  0  0  0
   13.9880    0.9260    7.9930 C   0  0  0  0  0  0  0  0  0  0  0  0
   12.0210   -3.6210    1.0730 C   0  0  0  0  0  0  0  0  0  0  0  0
   15.0850    0.7290    7.1740 C   0  0  0  0  0  0  0  0  0  0  0  0
   16.2060   -0.1230    4.2200 C   0  0  0  0  0  0  0  0  0  0  0  0
   17.1860   -0.0580    3.2580 C   0  0  0  0  0  0  0  0  0  0  0  0
   15.3830   -1.2350    4.3050 C   0  0  0  0  0  0  0  0  0  0  0  0
   17.3530   -1.1050    2.3780 C   0  0  0  0  0  0  0  0  0  0  0  0
   15.5570   -2.2880    3.4220 C   0  0  0  0  0  0  0  0  0  0  0  0
   16.5470   -2.2310    2.4610 C   0  0  0  0  0  0  0  0  0  0  0  0
   18.4270   -1.0130    1.3580 C   0  0  0  0  0  0  0  0  0  0  0  0
    9.9601    2.4729    4.6127 H   0  0  0  0  0  0  0  0  0  0  0  0
    9.4182    1.2509    2.6162 H   0  0  0  0  0  0  0  0  0  0  0  0
   11.6304    1.9249    3.0915 H   0  0  0  0  0  0  0  0  0  0  0  0
   11.9510    0.4328    4.0389 H   0  0  0  0  0  0  0  0  0  0  0  0
   10.4558    0.1290    6.2630 H   0  0  0  0  0  0  0  0  0  0  0  0
    9.4680    1.5499    6.7447 H   0  0  0  0  0  0  0  0  0  0  0  0
    9.7411   -1.2516    4.2885 H   0  0  0  0  0  0  0  0  0  0  0  0
    8.3045   -0.7473    3.3354 H   0  0  0  0  0  0  0  0  0  0  0  0
    8.0562   -0.2353    5.7482 H   0  0  0  0  0  0  0  0  0  0  0  0
    8.0486    1.2494    4.7372 H   0  0  0  0  0  0  0  0  0  0  0  0
   11.1135    3.2092    6.5207 H   0  0  0  0  0  0  0  0  0  0  0  0
   11.9492    3.5017    4.9578 H   0  0  0  0  0  0  0  0  0  0  0  0
   11.0829   -1.9824    2.9593 H   0  0  0  0  0  0  0  0  0  0  0  0
   13.9267    2.1869    4.3495 H   0  0  0  0  0  0  0  0  0  0  0  0
   12.0280    1.7539    8.1525 H   0  0  0  0  0  0  0  0  0  0  0  0
   10.8011    0.0883   -1.3848 H   0  0  0  0  0  0  0  0  0  0  0  0
   13.9989    0.5628    9.0143 H   0  0  0  0  0  0  0  0  0  0  0  0
   11.9938   -3.9135    2.1331 H   0  0  0  0  0  0  0  0  0  0  0  0
   13.0587   -3.6550    0.7098 H   0  0  0  0  0  0  0  0  0  0  0  0
   11.4037   -4.3160    0.4850 H   0  0  0  0  0  0  0  0  0  0  0  0
   15.9707    0.2352    7.5572 H   0  0  0  0  0  0  0  0  0  0  0  0
   17.8257    0.8147    3.1920 H   0  0  0  0  0  0  0  0  0  0  0  0
   14.6061   -1.2805    5.0596 H   0  0  0  0  0  0  0  0  0  0  0  0
   14.9145   -3.1588    3.4855 H   0  0  0  0  0  0  0  0  0  0  0  0
   16.6931   -3.0593    1.7771 H   0  0  0  0  0  0  0  0  0  0  0  0
  1 33  1  0  0  0  0
  2 33  1  0  0  0  0
  3 33  1  0  0  0  0
  4 18  2  0  0  0  0
  5 23  1  0  0  0  0
  5 27  1  0  0  0  0
  6 22  2  0  0  0  0
  7 11  1  0  0  0  0
  7 12  1  0  0  0  0
  7 15  1  0  0  0  0
  7 34  1  0  0  0  0
  8 10  1  0  0  0  0
  8 17  1  0  0  0  0
  8 18  1  0  0  0  0
  9 18  1  0  0  0  0
  9 22  1  0  0  0  0
  9 49  1  0  0  0  0
 10 11  1  0  0  0  0
 10 13  1  0  0  0  0
 10 35  1  0  0  0  0
 11 36  1  0  0  0  0
 11 37  1  0  0  0  0
 12 14  1  0  0  0  0
 12 38  1  0  0  0  0
 12 39  1  0  0  0  0
 13 14  1  0  0  0  0
 13 40  1  0  0  0  0
 13 41  1  0  0  0  0
 14 42  1  0  0  0  0
 14 43  1  0  0  0  0
 15 16  1  0  0  0  0
 15 44  1  0  0  0  0
 15 45  1  0  0  0  0
 16 20  2  0  0  0  0
 16 21  1  0  0  0  0
 17 19  2  0  0  0  0
 17 46  1  0  0  0  0
 19 22  1  0  0  0  0
 19 25  1  0  0  0  0
 20 23  1  0  0  0  0
 20 47  1  0  0  0  0
 21 24  2  0  0  0  0
 21 48  1  0  0  0  0
 23 26  2  0  0  0  0
 24 26  1  0  0  0  0
 24 50  1  0  0  0  0
 25 51  1  0  0  0  0
 25 52  1  0  0  0  0
 25 53  1  0  0  0  0
 26 54  1  0  0  0  0
 27 28  2  0  0  0  0
 27 29  1  0  0  0  0
 28 30  1  0  0  0  0
 28 55  1  0  0  0  0
 29 31  2  0  0  0  0
 29 56  1  0  0  0  0
 30 32  2  0  0  0  0
 30 33  1  0  0  0  0
 31 32  1  0  0  0  0
 31 57  1  0  0  0  0
 32 58  1  0  0  0  0
M  CHG  1   7   1
M  END
> <PUBCHEM_COMPOUND_ID_TYPE>
0

> <PUBCHEM_TOTAL_CHARGE>
1

> <PUBCHEM_SUBSTANCE_ID>
170485140

> <PUBCHEM_SUBSTANCE_VERSION>
1

> <PUBCHEM_EXT_DATASOURCE_NAME>
Shanghai Institute of Organic Chemistry

> <PUBCHEM_EXT_DATASOURCE_REGID>
4hej

> <PUBCHEM_SUBSTANCE_COMMENT>
PDB code 4hej, binding affinity data from PDBbind-CN database: IC50=24000nM

> <PUBCHEM_SUBSTANCE_SYNONYM>
4hej

> <PUBCHEM_XREF_EXT_ID>
4hej

> <PUBCHEM_EXT_DATASOURCE_URL>
http://www.sioc-ccbg.ac.cn/

> <PUBCHEM_EXT_SUBSTANCE_URL>
http://www.pdbbind-cn.org/quickpdb.asp?quickpdb=4hej

> <PUBCHEM_CID_ASSOCIATIONS>
72200989  1
66545765  2

> <PUBCHEM_CONFORMER_ID>
0A29659400010001

> <PUBCHEM_COORDINATE_TYPE>
2
3
4

$$$$
170485139
  -OEChem-11262106393D

 69 72  0     1  0  0  0  0  0999 V2000
   19.6990   -0.2680    1.1600 Cl  0  0  0  0  0  0  0  0  0  0  0  0
   11.1430    1.9600    0.5090 O   0  0  0  0  0  0  0  0  0  0  0  0
   17.5220    1.1250    5.5080 O   0  0  0  0  0  0  0  0  0  0  0  0
   12.9330   -1.7420   -1.3510 O   0  0  0  0  0  0  0  0  0  0  0  0
   17.6370   -0.8650    7.7320 O   0  5  0  0  0  0  0  0  0  0  0  0
   17.7370    0.6880    9.3270 O   0  0  0  0  0  0  0  0  0  0  0  0
   12.0210    2.4720    4.9330 N   0  3  2  0  0  0  0  0  0  0  0  0
   11.6560    0.2370    1.9100 N   0  0  0  0  0  0  0  0  0  0  0  0
   12.0320    0.0910   -0.3460 N   0  0  0  0  0  0  0  0  0  0  0  0
   12.4520    1.5940    3.8110 C   0  0  0  0  0  0  0  0  0  0  0  0
   13.1050    3.2740    5.5430 C   0  0  2  0  0  0  0  0  0  0  0  0
   11.2310    0.9840    3.1180 C   0  0  2  0  0  0  0  0  0  0  0  0
   11.2720    1.6530    5.9370 C   0  0  0  0  0  0  0  0  0  0  0  0
   10.4220    0.1580    4.1430 C   0  0  0  0  0  0  0  0  0  0  0  0
   10.0150    1.0550    5.3230 C   0  0  0  0  0  0  0  0  0  0  0  0
   13.4970    4.4440    4.6110 C   0  0  0  0  0  0  0  0  0  0  0  0
   14.2160    2.4820    6.2220 C   0  0  0  0  0  0  0  0  0  0  0  0
   14.5670    5.3970    5.1620 C   0  0  0  0  0  0  0  0  0  0  0  0
   15.3720    2.1060    5.5410 C   0  0  0  0  0  0  0  0  0  0  0  0
   12.1810   -1.0400    2.0600 C   0  0  0  0  0  0  0  0  0  0  0  0
   14.0790    2.1610    7.5770 C   0  0  0  0  0  0  0  0  0  0  0  0
   11.5820    0.8330    0.6800 C   0  0  0  0  0  0  0  0  0  0  0  0
   13.9860    6.3030    6.2570 C   0  0  0  0  0  0  0  0  0  0  0  0
   15.1320    6.2240    3.9930 C   0  0  0  0  0  0  0  0  0  0  0  0
   12.6480   -1.7610    1.0180 C   0  0  0  0  0  0  0  0  0  0  0  0
   16.3780    1.3980    6.1830 C   0  0  0  0  0  0  0  0  0  0  0  0
   15.0730    1.4670    8.2460 C   0  0  0  0  0  0  0  0  0  0  0  0
   16.2260    1.0600    7.5540 C   0  0  0  0  0  0  0  0  0  0  0  0
   12.5800   -1.1770   -0.2990 C   0  0  0  0  0  0  0  0  0  0  0  0
   13.2110   -3.1470    1.1740 C   0  0  0  0  0  0  0  0  0  0  0  0
   17.2580    0.2840    8.2620 C   0  0  0  0  0  0  0  0  0  0  0  0
   17.6020    0.1850    4.4920 C   0  0  0  0  0  0  0  0  0  0  0  0
   16.7960   -0.9630    4.4750 C   0  0  0  0  0  0  0  0  0  0  0  0
   18.5180    0.3980    3.4600 C   0  0  0  0  0  0  0  0  0  0  0  0
   18.6210   -0.5640    2.4550 C   0  0  0  0  0  0  0  0  0  0  0  0
   16.8940   -1.8970    3.4450 C   0  0  0  0  0  0  0  0  0  0  0  0
   17.8290   -1.7120    2.4440 C   0  0  0  0  0  0  0  0  0  0  0  0
   11.3684    3.1359    4.5465 H   0  0  0  0  0  0  0  0  0  0  0  0
   13.0873    0.7869    4.2046 H   0  0  0  0  0  0  0  0  0  0  0  0
   13.0235    2.1886    3.0831 H   0  0  0  0  0  0  0  0  0  0  0  0
   12.6187    3.7754    6.3927 H   0  0  0  0  0  0  0  0  0  0  0  0
   10.5830    1.8054    2.7783 H   0  0  0  0  0  0  0  0  0  0  0  0
   10.9884    2.2940    6.7848 H   0  0  0  0  0  0  0  0  0  0  0  0
   11.9206    0.8392    6.2934 H   0  0  0  0  0  0  0  0  0  0  0  0
    9.5189   -0.2424    3.6591 H   0  0  0  0  0  0  0  0  0  0  0  0
   11.0399   -0.6740    4.5118 H   0  0  0  0  0  0  0  0  0  0  0  0
    9.3579    1.8614    4.9655 H   0  0  0  0  0  0  0  0  0  0  0  0
    9.4835    0.4561    6.0771 H   0  0  0  0  0  0  0  0  0  0  0  0
   12.5908    5.0333    4.4071 H   0  0  0  0  0  0  0  0  0  0  0  0
   13.8756    4.0164    3.6709 H   0  0  0  0  0  0  0  0  0  0  0  0
   15.3811    4.8020    5.6016 H   0  0  0  0  0  0  0  0  0  0  0  0
   15.4870    2.3700    4.4959 H   0  0  0  0  0  0  0  0  0  0  0  0
   12.2175   -1.4770    3.0568 H   0  0  0  0  0  0  0  0  0  0  0  0
   13.1833    2.4594    8.1097 H   0  0  0  0  0  0  0  0  0  0  0  0
   14.7723    6.9740    6.6331 H   0  0  0  0  0  0  0  0  0  0  0  0
   13.6069    5.6832    7.0829 H   0  0  0  0  0  0  0  0  0  0  0  0
   13.1626    6.9010    5.8395 H   0  0  0  0  0  0  0  0  0  0  0  0
   15.5393    5.5467    3.2279 H   0  0  0  0  0  0  0  0  0  0  0  0
   15.9316    6.8828    4.3626 H   0  0  0  0  0  0  0  0  0  0  0  0
   14.3288    6.8334    3.5531 H   0  0  0  0  0  0  0  0  0  0  0  0
   14.9620    1.2385    9.2998 H   0  0  0  0  0  0  0  0  0  0  0  0
   11.9619    0.5064   -1.2530 H   0  0  0  0  0  0  0  0  0  0  0  0
   13.1886   -3.4345    2.2355 H   0  0  0  0  0  0  0  0  0  0  0  0
   14.2494   -3.1640    0.8114 H   0  0  0  0  0  0  0  0  0  0  0  0
   12.6068   -3.8562    0.5893 H   0  0  0  0  0  0  0  0  0  0  0  0
   16.0848   -1.1265    5.2766 H   0  0  0  0  0  0  0  0  0  0  0  0
   19.1343    1.2895    3.4402 H   0  0  0  0  0  0  0  0  0  0  0  0
   16.2415   -2.7624    3.4291 H   0  0  0  0  0  0  0  0  0  0  0  0
   17.9454   -2.4508    1.6593 H   0  0  0  0  0  0  0  0  0  0  0  0
  1 35  1  0  0  0  0
  2 22  2  0  0  0  0
  3 26  1  0  0  0  0
  3 32  1  0  0  0  0
  4 29  2  0  0  0  0
  5 31  1  0  0  0  0
  6 31  2  0  0  0  0
  7 10  1  0  0  0  0
  7 11  1  0  0  0  0
  7 13  1  0  0  0  0
  7 38  1  0  0  0  0
  8 12  1  0  0  0  0
  8 20  1  0  0  0  0
  8 22  1  0  0  0  0
  9 22  1  0  0  0  0
  9 29  1  0  0  0  0
  9 62  1  0  0  0  0
 10 12  1  0  0  0  0
 10 39  1  0  0  0  0
 10 40  1  0  0  0  0
 11 16  1  0  0  0  0
 11 17  1  0  0  0  0
 11 41  1  0  0  0  0
 12 14  1  0  0  0  0
 12 42  1  0  0  0  0
 13 15  1  0  0  0  0
 13 43  1  0  0  0  0
 13 44  1  0  0  0  0
 14 15  1  0  0  0  0
 14 45  1  0  0  0  0
 14 46  1  0  0  0  0
 15 47  1  0  0  0  0
 15 48  1  0  0  0  0
 16 18  1  0  0  0  0
 16 49  1  0  0  0  0
 16 50  1  0  0  0  0
 17 19  1  0  0  0  0
 17 21  2  0  0  0  0
 18 23  1  0  0  0  0
 18 24  1  0  0  0  0
 18 51  1  0  0  0  0
 19 26  2  0  0  0  0
 19 52  1  0  0  0  0
 20 25  2  0  0  0  0
 20 53  1  0  0  0  0
 21 27  1  0  0  0  0
 21 54  1  0  0  0  0
 23 55  1  0  0  0  0
 23 56  1  0  0  0  0
 23 57  1  0  0  0  0
 24 58  1  0  0  0  0
 24 59  1  0  0  0  0
 24 60  1  0  0  0  0
 25 29  1  0  0  0  0
 25 30  1  0  0  0  0
 26 28  1  0  0  0  0
 27 28  2  0  0  0  0
 27 61  1  0  0  0  0
 28 31  1  0  0  0  0
 30 63  1  0  0  0  0
 30 64  1  0  0  0  0
 30 65  1  0  0  0  0
 32 33  2  0  0  0  0
 32 34  1  0  0  0  0
 33 36  1  0  0  0  0
 33 66  1  0  0  0  0
 34 35  2  0  0  0  0
 34 67  1  0  0  0  0
 35 37  1  0  0  0  0
 36 37  2  0  0  0  0
 36 68  1  0  0  0  0
 37 69  1  0  0  0  0
M  CHG  2   5  -1   7   1
M  END
> <PUBCHEM_COMPOUND_ID_TYPE>
0

> <PUBCHEM_TOTAL_CHARGE>
0

> <PUBCHEM_SUBSTANCE_ID>
170485139

> <PUBCHEM_SUBSTANCE_VERSION>
1

> <PUBCHEM_EXT_DATASOURCE_NAME>
Shanghai Institute of Organic Chemistry

> <PUBCHEM_EXT_DATASOURCE_REGID>
4hdc

> <PUBCHEM_SUBSTANCE_COMMENT>
PDB code 4hdc, binding affinity data from PDBbind-CN database: IC50=1.2nM

> <PUBCHEM_SUBSTANCE_SYNONYM>
4hdc

> <PUBCHEM_XREF_EXT_ID>
4hdc

> <PUBCHEM_EXT_DATASOURCE_URL>
http://www.sioc-ccbg.ac.cn/

> <PUBCHEM_EXT_SUBSTANCE_URL>
http://www.pdbbind-cn.org/quickpdb.asp?quickpdb=4hdc

> <PUBCHEM_CID_ASSOCIATIONS>
72200988  1
66545764  2

> <PUBCHEM_CONFORMER_ID>
0A29659300010001

> <PUBCHEM_COORDINATE_TYPE>
2
3
4

$$$$
170485137
  -OEChem-11262106393D

 71 75  0     1  0  0  0  0  0999 V2000
   11.4210    5.9110   20.6140 O   0  0  0  0  0  0  0  0  0  0  0  0
    2.5370   10.5290   18.7500 O   0  0  0  0  0  0  0  0  0  0  0  0
    9.3770    5.1410   21.3980 N   0  0  0  0  0  0  0  0  0  0  0  0
    5.7220    5.8540   21.8370 N   0  0  0  0  0  0  0  0  0  0  0  0
    5.0280    6.4630   20.8630 N   0  0  0  0  0  0  0  0  0  0  0  0
    5.3350    4.2210   23.5710 N   0  0  0  0  0  0  0  0  0  0  0  0
    3.0380    3.5230   23.6600 N   0  0  0  0  0  0  0  0  0  0  0  0
    1.3510    4.3400   22.2320 N   0  0  0  0  0  0  0  0  0  0  0  0
    1.7860    9.8410   16.6920 N   0  0  0  0  0  0  0  0  0  0  0  0
    7.1560    6.0800   21.9110 C   0  0  1  0  0  0  0  0  0  0  0  0
    7.6620    6.3900   23.3190 C   0  0  0  0  0  0  0  0  0  0  0  0
    7.9340    4.9380   21.2440 C   0  0  0  0  0  0  0  0  0  0  0  0
    9.1760    6.5190   23.3530 C   0  0  0  0  0  0  0  0  0  0  0  0
    9.8270    5.2880   22.7580 C   0  0  0  0  0  0  0  0  0  0  0  0
    4.9300    5.0080   22.5590 C   0  0  0  0  0  0  0  0  0  0  0  0
   10.2790    5.4980   20.4080 C   0  0  0  0  0  0  0  0  0  0  0  0
    3.6570    5.1100   22.0280 C   0  0  0  0  0  0  0  0  0  0  0  0
    3.7650    6.0390   20.9490 C   0  0  0  0  0  0  0  0  0  0  0  0
    9.8170    5.2880   19.0050 C   0  0  0  0  0  0  0  0  0  0  0  0
    2.8220    6.5170   19.9510 C   0  0  0  0  0  0  0  0  0  0  0  0
    2.6870    4.3130   22.6240 C   0  0  0  0  0  0  0  0  0  0  0  0
   10.8060    4.2690   18.4420 C   0  0  0  0  0  0  0  0  0  0  0  0
    4.3160    3.5200   24.0750 C   0  0  0  0  0  0  0  0  0  0  0  0
    2.8670    7.8350   19.5020 C   0  0  0  0  0  0  0  0  0  0  0  0
    1.8970    5.6660   19.3660 C   0  0  0  0  0  0  0  0  0  0  0  0
    2.0120    8.2680   18.4960 C   0  0  0  0  0  0  0  0  0  0  0  0
    1.0250    6.1000   18.3830 C   0  0  0  0  0  0  0  0  0  0  0  0
    1.0950    7.4010   17.9170 C   0  0  0  0  0  0  0  0  0  0  0  0
    2.1310    9.6470   18.0060 C   0  0  0  0  0  0  0  0  0  0  0  0
    2.1020   14.8330   14.0620 C   0  0  0  0  0  0  0  0  0  0  0  0
    2.1220   13.4840   14.7090 C   0  0  0  0  0  0  0  0  0  0  0  0
    1.9200   11.0780   16.0250 C   0  0  0  0  0  0  0  0  0  0  0  0
    1.4130   13.3960   15.8870 C   0  0  0  0  0  0  0  0  0  0  0  0
    2.7330   12.3610   14.1700 C   0  0  0  0  0  0  0  0  0  0  0  0
    1.4850   14.8310   12.6790 C   0  0  0  0  0  0  0  0  0  0  0  0
    3.3510   15.6550   14.1860 C   0  0  0  0  0  0  0  0  0  0  0  0
    1.2940   12.1960   16.5490 C   0  0  0  0  0  0  0  0  0  0  0  0
    2.6330   11.1520   14.8420 C   0  0  0  0  0  0  0  0  0  0  0  0
    7.3496    6.9894   21.3422 H   0  0  0  0  0  0  0  0  0  0  0  0
    7.2282    7.3369   23.6404 H   0  0  0  0  0  0  0  0  0  0  0  0
    7.3710    5.5717   23.9777 H   0  0  0  0  0  0  0  0  0  0  0  0
    7.6909    4.9172   20.1817 H   0  0  0  0  0  0  0  0  0  0  0  0
    7.6564    3.9965   21.7180 H   0  0  0  0  0  0  0  0  0  0  0  0
    9.4991    6.6248   24.3886 H   0  0  0  0  0  0  0  0  0  0  0  0
    9.4701    7.3918   22.7700 H   0  0  0  0  0  0  0  0  0  0  0  0
    9.5517    4.4065   23.3370 H   0  0  0  0  0  0  0  0  0  0  0  0
   10.9115    5.3947   22.7802 H   0  0  0  0  0  0  0  0  0  0  0  0
    9.8041    6.2140   18.4302 H   0  0  0  0  0  0  0  0  0  0  0  0
    8.7867    4.9357   18.9566 H   0  0  0  0  0  0  0  0  0  0  0  0
   11.8144    4.6803   18.4866 H   0  0  0  0  0  0  0  0  0  0  0  0
   10.7589    3.3542   19.0327 H   0  0  0  0  0  0  0  0  0  0  0  0
   10.5479    4.0480   17.4063 H   0  0  0  0  0  0  0  0  0  0  0  0
    4.5476    2.8712   24.9197 H   0  0  0  0  0  0  0  0  0  0  0  0
    3.5789    8.5324   19.9436 H   0  0  0  0  0  0  0  0  0  0  0  0
    1.8554    4.6259   19.6894 H   0  0  0  0  0  0  0  0  0  0  0  0
    1.0525    4.9617   21.4805 H   0  0  0  0  0  0  0  0  0  0  0  0
    0.6710    3.7381   22.6964 H   0  0  0  0  0  0  0  0  0  0  0  0
    0.2814    5.4155   17.9749 H   0  0  0  0  0  0  0  0  0  0  0  0
    0.4431    7.7386   17.1113 H   0  0  0  0  0  0  0  0  0  0  0  0
    1.4099   15.3934   14.6905 H   0  0  0  0  0  0  0  0  0  0  0  0
    1.4127    9.0488   16.1691 H   0  0  0  0  0  0  0  0  0  0  0  0
    0.9408   14.2877   16.2993 H   0  0  0  0  0  0  0  0  0  0  0  0
    3.2838   12.4280   13.2318 H   0  0  0  0  0  0  0  0  0  0  0  0
    1.2227   15.8510   12.3981 H   0  0  0  0  0  0  0  0  0  0  0  0
    2.2019   14.4287   11.9633 H   0  0  0  0  0  0  0  0  0  0  0  0
    0.5879   14.2119   12.6837 H   0  0  0  0  0  0  0  0  0  0  0  0
    4.1072   15.2700   13.5018 H   0  0  0  0  0  0  0  0  0  0  0  0
    3.1279   16.6924   13.9366 H   0  0  0  0  0  0  0  0  0  0  0  0
    3.7221   15.5976   15.2093 H   0  0  0  0  0  0  0  0  0  0  0  0
    0.7164   12.1266   17.4708 H   0  0  0  0  0  0  0  0  0  0  0  0
    3.1154   10.2617   14.4387 H   0  0  0  0  0  0  0  0  0  0  0  0
  1 16  2  0  0  0  0
  2 29  2  0  0  0  0
  3 12  1  0  0  0  0
  3 14  1  0  0  0  0
  3 16  1  0  0  0  0
  4  5  1  0  0  0  0
  4 10  1  0  0  0  0
  4 15  1  0  0  0  0
  5 18  2  0  0  0  0
  6 15  2  0  0  0  0
  6 23  1  0  0  0  0
  7 21  1  0  0  0  0
  7 23  2  0  0  0  0
  8 21  1  0  0  0  0
  8 56  1  0  0  0  0
  8 57  1  0  0  0  0
  9 29  1  0  0  0  0
  9 32  1  0  0  0  0
  9 61  1  0  0  0  0
 10 11  1  0  0  0  0
 10 12  1  0  0  0  0
 10 39  1  0  0  0  0
 11 13  1  0  0  0  0
 11 40  1  0  0  0  0
 11 41  1  0  0  0  0
 12 42  1  0  0  0  0
 12 43  1  0  0  0  0
 13 14  1  0  0  0  0
 13 44  1  0  0  0  0
 13 45  1  0  0  0  0
 14 46  1  0  0  0  0
 14 47  1  0  0  0  0
 15 17  1  0  0  0  0
 16 19  1  0  0  0  0
 17 18  1  0  0  0  0
 17 21  2  0  0  0  0
 18 20  1  0  0  0  0
 19 22  1  0  0  0  0
 19 48  1  0  0  0  0
 19 49  1  0  0  0  0
 20 24  1  0  0  0  0
 20 25  2  0  0  0  0
 22 50  1  0  0  0  0
 22 51  1  0  0  0  0
 22 52  1  0  0  0  0
 23 53  1  0  0  0  0
 24 26  2  0  0  0  0
 24 54  1  0  0  0  0
 25 27  1  0  0  0  0
 25 55  1  0  0  0  0
 26 28  1  0  0  0  0
 26 29  1  0  0  0  0
 27 28  2  0  0  0  0
 27 58  1  0  0  0  0
 28 59  1  0  0  0  0
 30 31  1  0  0  0  0
 30 35  1  0  0  0  0
 30 36  1  0  0  0  0
 30 60  1  0  0  0  0
 31 33  2  0  0  0  0
 31 34  1  0  0  0  0
 32 37  2  0  0  0  0
 32 38  1  0  0  0  0
 33 37  1  0  0  0  0
 33 62  1  0  0  0  0
 34 38  2  0  0  0  0
 34 63  1  0  0  0  0
 35 64  1  0  0  0  0
 35 65  1  0  0  0  0
 35 66  1  0  0  0  0
 36 67  1  0  0  0  0
 36 68  1  0  0  0  0
 36 69  1  0  0  0  0
 37 70  1  0  0  0  0
 38 71  1  0  0  0  0
M  END
> <PUBCHEM_COMPOUND_ID_TYPE>
0

> <PUBCHEM_TOTAL_CHARGE>
0

> <PUBCHEM_SUBSTANCE_ID>
170485137

> <PUBCHEM_SUBSTANCE_VERSION>
1

> <PUBCHEM_EXT_DATASOURCE_NAME>
Shanghai Institute of Organic Chemistry

> <PUBCHEM_EXT_DATASOURCE_REGID>
4hcv

> <PUBCHEM_SUBSTANCE_COMMENT>
PDB code 4hcv, binding affinity data from PDBbind-CN database: IC50=0.40uM

> <PUBCHEM_SUBSTANCE_SYNONYM>
4hcv

> <PUBCHEM_XREF_EXT_ID>
4hcv

> <PUBCHEM_EXT_DATASOURCE_URL>
http://www.sioc-ccbg.ac.cn/

> <PUBCHEM_EXT_SUBSTANCE_URL>
http://www.pdbbind-cn.org/quickpdb.asp?quickpdb=4hcv

> <PUBCHEM_CID_ASSOCIATIONS>
72200987  1

> <PUBCHEM_CONFORMER_ID>
0A29659100010001

> <PUBCHEM_COORDINATE_TYPE>
2
3
4

$$$$
170485136
  -OEChem-11262106393D

 71 75  0     1  0  0  0  0  0999 V2000
    8.3780    3.1790   22.9650 O   0  0  0  0  0  0  0  0  0  0  0  0
    1.9650   10.8780   19.1400 O   0  0  0  0  0  0  0  0  0  0  0  0
    8.2330    5.1820   21.7840 N   0  0  0  0  0  0  0  0  0  0  0  0
    4.7040    5.9980   22.4160 N   0  0  0  0  0  0  0  0  0  0  0  0
    4.1440    6.6910   21.3960 N   0  0  0  0  0  0  0  0  0  0  0  0
    4.0760    4.3110   24.0410 N   0  0  0  0  0  0  0  0  0  0  0  0
    1.7360    3.7340   23.8980 N   0  0  0  0  0  0  0  0  0  0  0  0
    0.2480    4.7100   22.3490 N   0  0  0  0  0  0  0  0  0  0  0  0
    1.4170   10.2640   17.0190 N   0  0  0  0  0  0  0  0  0  0  0  0
    6.1440    6.0600   22.6670 C   0  0  2  0  0  0  0  0  0  0  0  0
    6.6990    7.4800   22.5790 C   0  0  0  0  0  0  0  0  0  0  0  0
    6.7930    5.1050   21.6630 C   0  0  0  0  0  0  0  0  0  0  0  0
    8.2330    7.4920   22.5780 C   0  0  0  0  0  0  0  0  0  0  0  0
    8.7700    6.5140   21.5360 C   0  0  0  0  0  0  0  0  0  0  0  0
    3.8290    5.1350   23.0170 C   0  0  0  0  0  0  0  0  0  0  0  0
    8.9070    4.1390   22.3990 C   0  0  0  0  0  0  0  0  0  0  0  0
    2.6080    5.3440   22.3970 C   0  0  0  0  0  0  0  0  0  0  0  0
    2.8580    6.2970   21.3630 C   0  0  0  0  0  0  0  0  0  0  0  0
   10.4080    4.2280   22.3560 C   0  0  0  0  0  0  0  0  0  0  0  0
    1.9990    6.8140   20.2930 C   0  0  0  0  0  0  0  0  0  0  0  0
    1.5300    4.5970   22.8880 C   0  0  0  0  0  0  0  0  0  0  0  0
   10.9520    3.6560   21.0660 C   0  0  0  0  0  0  0  0  0  0  0  0
    2.9790    3.6170   24.3990 C   0  0  0  0  0  0  0  0  0  0  0  0
    2.1510    8.1210   19.8590 C   0  0  0  0  0  0  0  0  0  0  0  0
    1.1050    5.9950   19.6010 C   0  0  0  0  0  0  0  0  0  0  0  0
    1.4130    8.6100   18.7890 C   0  0  0  0  0  0  0  0  0  0  0  0
    0.3590    6.4760   18.5380 C   0  0  0  0  0  0  0  0  0  0  0  0
    0.5240    7.7810   18.1090 C   0  0  0  0  0  0  0  0  0  0  0  0
    1.6180   10.0100   18.3510 C   0  0  0  0  0  0  0  0  0  0  0  0
    2.3480   15.1300   14.1720 C   0  0  0  0  0  0  0  0  0  0  0  0
    2.0650   13.8890   14.9860 C   0  0  0  0  0  0  0  0  0  0  0  0
    1.6380   11.5080   16.3540 C   0  0  0  0  0  0  0  0  0  0  0  0
    2.5820   12.7000   14.5140 C   0  0  0  0  0  0  0  0  0  0  0  0
    1.3330   13.8820   16.1580 C   0  0  0  0  0  0  0  0  0  0  0  0
    2.5360   16.3920   14.9790 C   0  0  0  0  0  0  0  0  0  0  0  0
    1.3150   15.3300   13.0660 C   0  0  0  0  0  0  0  0  0  0  0  0
    2.3680   11.5080   15.1830 C   0  0  0  0  0  0  0  0  0  0  0  0
    1.1250   12.6940   16.8370 C   0  0  0  0  0  0  0  0  0  0  0  0
    6.3710    5.7561   23.6889 H   0  0  0  0  0  0  0  0  0  0  0  0
    6.3519    7.9267   21.6473 H   0  0  0  0  0  0  0  0  0  0  0  0
    6.3522    8.0383   23.4486 H   0  0  0  0  0  0  0  0  0  0  0  0
    6.4982    5.3860   20.6520 H   0  0  0  0  0  0  0  0  0  0  0  0
    6.4655    4.0857   21.8677 H   0  0  0  0  0  0  0  0  0  0  0  0
    8.5918    7.1945   23.5633 H   0  0  0  0  0  0  0  0  0  0  0  0
    8.5808    8.4963   22.3359 H   0  0  0  0  0  0  0  0  0  0  0  0
    9.8576    6.4812   21.6001 H   0  0  0  0  0  0  0  0  0  0  0  0
    8.4674    6.8447   20.5424 H   0  0  0  0  0  0  0  0  0  0  0  0
   10.8149    3.6557   23.1897 H   0  0  0  0  0  0  0  0  0  0  0  0
   10.6967    5.2771   22.4209 H   0  0  0  0  0  0  0  0  0  0  0  0
   10.6623    2.6084   20.9839 H   0  0  0  0  0  0  0  0  0  0  0  0
   10.5453    4.2140   20.2226 H   0  0  0  0  0  0  0  0  0  0  0  0
   12.0391    3.7348   21.0651 H   0  0  0  0  0  0  0  0  0  0  0  0
    3.1137    2.8746   25.1857 H   0  0  0  0  0  0  0  0  0  0  0  0
    2.8607    8.7754   20.3651 H   0  0  0  0  0  0  0  0  0  0  0  0
    0.9916    4.9541   19.9040 H   0  0  0  0  0  0  0  0  0  0  0  0
    0.0750    5.3509   21.5746 H   0  0  0  0  0  0  0  0  0  0  0  0
   -0.5162    4.1517   22.7294 H   0  0  0  0  0  0  0  0  0  0  0  0
   -0.3591    5.8256   18.0386 H   0  0  0  0  0  0  0  0  0  0  0  0
   -0.0340    8.1552   17.2507 H   0  0  0  0  0  0  0  0  0  0  0  0
    3.3186   14.9389   13.7142 H   0  0  0  0  0  0  0  0  0  0  0  0
    1.0769    9.4901   16.4482 H   0  0  0  0  0  0  0  0  0  0  0  0
    3.1703   12.6998   13.5964 H   0  0  0  0  0  0  0  0  0  0  0  0
    0.9194   14.8121   16.5478 H   0  0  0  0  0  0  0  0  0  0  0  0
    2.8781   17.1931   14.3238 H   0  0  0  0  0  0  0  0  0  0  0  0
    1.5874   16.6745   15.4356 H   0  0  0  0  0  0  0  0  0  0  0  0
    3.2777   16.2164   15.7582 H   0  0  0  0  0  0  0  0  0  0  0  0
    0.3582   15.6052   13.5097 H   0  0  0  0  0  0  0  0  0  0  0  0
    1.6489   16.1239   12.3979 H   0  0  0  0  0  0  0  0  0  0  0  0
    1.2029   14.4032   12.5034 H   0  0  0  0  0  0  0  0  0  0  0  0
    2.7729   10.5762   14.7882 H   0  0  0  0  0  0  0  0  0  0  0  0
    0.5499   12.6955   17.7629 H   0  0  0  0  0  0  0  0  0  0  0  0
  1 16  2  0  0  0  0
  2 29  2  0  0  0  0
  3 12  1  0  0  0  0
  3 14  1  0  0  0  0
  3 16  1  0  0  0  0
  4  5  1  0  0  0  0
  4 10  1  0  0  0  0
  4 15  1  0  0  0  0
  5 18  2  0  0  0  0
  6 15  2  0  0  0  0
  6 23  1  0  0  0  0
  7 21  1  0  0  0  0
  7 23  2  0  0  0  0
  8 21  1  0  0  0  0
  8 56  1  0  0  0  0
  8 57  1  0  0  0  0
  9 29  1  0  0  0  0
  9 32  1  0  0  0  0
  9 61  1  0  0  0  0
 10 11  1  0  0  0  0
 10 12  1  0  0  0  0
 10 39  1  0  0  0  0
 11 13  1  0  0  0  0
 11 40  1  0  0  0  0
 11 41  1  0  0  0  0
 12 42  1  0  0  0  0
 12 43  1  0  0  0  0
 13 14  1  0  0  0  0
 13 44  1  0  0  0  0
 13 45  1  0  0  0  0
 14 46  1  0  0  0  0
 14 47  1  0  0  0  0
 15 17  1  0  0  0  0
 16 19  1  0  0  0  0
 17 18  1  0  0  0  0
 17 21  2  0  0  0  0
 18 20  1  0  0  0  0
 19 22  1  0  0  0  0
 19 48  1  0  0  0  0
 19 49  1  0  0  0  0
 20 24  1  0  0  0  0
 20 25  2  0  0  0  0
 22 50  1  0  0  0  0
 22 51  1  0  0  0  0
 22 52  1  0  0  0  0
 23 53  1  0  0  0  0
 24 26  2  0  0  0  0
 24 54  1  0  0  0  0
 25 27  1  0  0  0  0
 25 55  1  0  0  0  0
 26 28  1  0  0  0  0
 26 29  1  0  0  0  0
 27 28  2  0  0  0  0
 27 58  1  0  0  0  0
 28 59  1  0  0  0  0
 30 31  1  0  0  0  0
 30 35  1  0  0  0  0
 30 36  1  0  0  0  0
 30 60  1  0  0  0  0
 31 33  2  0  0  0  0
 31 34  1  0  0  0  0
 32 37  2  0  0  0  0
 32 38  1  0  0  0  0
 33 37  1  0  0  0  0
 33 62  1  0  0  0  0
 34 38  2  0  0  0  0
 34 63  1  0  0  0  0
 35 64  1  0  0  0  0
 35 65  1  0  0  0  0
 35 66  1  0  0  0  0
 36 67  1  0  0  0  0
 36 68  1  0  0  0  0
 36 69  1  0  0  0  0
 37 70  1  0  0  0  0
 38 71  1  0  0  0  0
M  END
> <PUBCHEM_COMPOUND_ID_TYPE>
0

> <PUBCHEM_TOTAL_CHARGE>
0

> <PUBCHEM_SUBSTANCE_ID>
170485136

> <PUBCHEM_SUBSTANCE_VERSION>
1

> <PUBCHEM_EXT_DATASOURCE_NAME>
Shanghai Institute of Organic Chemistry

> <PUBCHEM_EXT_DATASOURCE_REGID>
4hcu

> <PUBCHEM_SUBSTANCE_COMMENT>
PDB code 4hcu, binding affinity data from PDBbind-CN database: IC50=0.01uM

> <PUBCHEM_SUBSTANCE_SYNONYM>
4hcu

> <PUBCHEM_XREF_EXT_ID>
4hcu

> <PUBCHEM_EXT_DATASOURCE_URL>
http://www.sioc-ccbg.ac.cn/

> <PUBCHEM_EXT_SUBSTANCE_URL>
http://www.pdbbind-cn.org/quickpdb.asp?quickpdb=4hcu

> <PUBCHEM_CID_ASSOCIATIONS>
72200986  1

> <PUBCHEM_CONFORMER_ID>
0A29659000010001

> <PUBCHEM_COORDINATE_TYPE>
2
3
4

$$$$
170485135
  -OEChem-11262106393D

 72 76  0     1  0  0  0  0  0999 V2000
    8.2570    3.0420   22.7080 O   0  0  0  0  0  0  0  0  0  0  0  0
    1.8890   10.8260   19.1990 O   0  0  0  0  0  0  0  0  0  0  0  0
    8.1800    5.1210   21.8490 N   0  0  0  0  0  0  0  0  0  0  0  0
    4.6340    5.9180   22.2700 N   0  0  0  0  0  0  0  0  0  0  0  0
    4.1020    6.6440   21.2400 N   0  0  0  0  0  0  0  0  0  0  0  0
    3.9830    4.2620   23.9220 N   0  0  0  0  0  0  0  0  0  0  0  0
    1.6560    3.6670   23.7580 N   0  0  0  0  0  0  0  0  0  0  0  0
    0.1970    4.6510   22.2500 N   0  0  0  0  0  0  0  0  0  0  0  0
    1.2040   10.4710   17.0690 N   0  0  0  0  0  0  0  0  0  0  0  0
    6.0760    5.9730   22.5970 C   0  0  2  0  0  0  0  0  0  0  0  0
    6.6020    7.4120   22.5920 C   0  0  0  0  0  0  0  0  0  0  0  0
    6.7480    5.1060   21.5570 C   0  0  0  0  0  0  0  0  0  0  0  0
    8.1340    7.4470   22.6120 C   0  0  0  0  0  0  0  0  0  0  0  0
    8.7090    6.4660   21.5870 C   0  0  0  0  0  0  0  0  0  0  0  0
    3.7460    5.1100   22.9070 C   0  0  0  0  0  0  0  0  0  0  0  0
    8.8560    4.0280   22.2600 C   0  0  0  0  0  0  0  0  0  0  0  0
    2.5300    5.3270   22.2300 C   0  0  0  0  0  0  0  0  0  0  0  0
    2.7890    6.2630   21.1950 C   0  0  0  0  0  0  0  0  0  0  0  0
    1.8870    6.7900   20.1340 C   0  0  0  0  0  0  0  0  0  0  0  0
    1.4410    4.5330   22.7430 C   0  0  0  0  0  0  0  0  0  0  0  0
   10.3410    4.0570   22.2370 C   0  0  0  0  0  0  0  0  0  0  0  0
    2.5870   14.0110   13.7470 C   0  0  0  0  0  0  0  0  0  0  0  0
    2.8920    3.5690   24.2650 C   0  0  0  0  0  0  0  0  0  0  0  0
    1.9960    8.1250   19.7630 C   0  0  0  0  0  0  0  0  0  0  0  0
    1.8390   13.5460   15.0090 C   0  0  0  0  0  0  0  0  0  0  0  0
    1.0360    5.9480   19.4140 C   0  0  0  0  0  0  0  0  0  0  0  0
    3.7260   14.9750   14.1100 C   0  0  0  0  0  0  0  0  0  0  0  0
    3.1960   12.8440   12.9650 C   0  0  0  0  0  0  0  0  0  0  0  0
    1.6380   14.7640   12.7890 C   0  0  0  0  0  0  0  0  0  0  0  0
    1.3790    8.5990   18.6080 C   0  0  0  0  0  0  0  0  0  0  0  0
    1.9080   12.2240   15.4630 C   0  0  0  0  0  0  0  0  0  0  0  0
   11.0070    3.6020   21.1970 C   0  0  0  0  0  0  0  0  0  0  0  0
    0.3260    6.4460   18.3280 C   0  0  0  0  0  0  0  0  0  0  0  0
    1.0480   14.4500   15.7160 C   0  0  0  0  0  0  0  0  0  0  0  0
    1.2020   11.8160   16.5960 C   0  0  0  0  0  0  0  0  0  0  0  0
    0.5260    7.7530   17.9010 C   0  0  0  0  0  0  0  0  0  0  0  0
    1.5640   10.0490   18.3050 C   0  0  0  0  0  0  0  0  0  0  0  0
    0.3410   14.0480   16.8420 C   0  0  0  0  0  0  0  0  0  0  0  0
    0.4180   12.7350   17.2850 C   0  0  0  0  0  0  0  0  0  0  0  0
    6.2821    5.6104   23.6041 H   0  0  0  0  0  0  0  0  0  0  0  0
    6.2324    7.9189   23.4834 H   0  0  0  0  0  0  0  0  0  0  0  0
    6.2562    7.9039   21.6829 H   0  0  0  0  0  0  0  0  0  0  0  0
    6.3578    4.0888   21.5922 H   0  0  0  0  0  0  0  0  0  0  0  0
    6.5548    5.4868   20.5541 H   0  0  0  0  0  0  0  0  0  0  0  0
    8.4807    7.1631   23.6056 H   0  0  0  0  0  0  0  0  0  0  0  0
    8.4675    8.4543   22.3624 H   0  0  0  0  0  0  0  0  0  0  0  0
    8.4240    6.7800   20.5829 H   0  0  0  0  0  0  0  0  0  0  0  0
    9.7960    6.4516   21.6669 H   0  0  0  0  0  0  0  0  0  0  0  0
   10.8853    4.4597   23.0912 H   0  0  0  0  0  0  0  0  0  0  0  0
    3.0252    2.8317   25.0567 H   0  0  0  0  0  0  0  0  0  0  0  0
    2.5723    8.8103   20.3846 H   0  0  0  0  0  0  0  0  0  0  0  0
    0.9291    4.9026   19.7034 H   0  0  0  0  0  0  0  0  0  0  0  0
    3.3139   15.8481   14.6159 H   0  0  0  0  0  0  0  0  0  0  0  0
    4.4311   14.4700   14.7703 H   0  0  0  0  0  0  0  0  0  0  0  0
    4.2385   15.2886   13.2006 H   0  0  0  0  0  0  0  0  0  0  0  0
    3.9050   12.3132   13.6004 H   0  0  0  0  0  0  0  0  0  0  0  0
    2.4033   12.1630   12.6550 H   0  0  0  0  0  0  0  0  0  0  0  0
    3.7117   13.2279   12.0848 H   0  0  0  0  0  0  0  0  0  0  0  0
    0.8247   14.1023   12.4909 H   0  0  0  0  0  0  0  0  0  0  0  0
    1.2296   15.6379   13.2967 H   0  0  0  0  0  0  0  0  0  0  0  0
    2.1922   15.0814   11.9057 H   0  0  0  0  0  0  0  0  0  0  0  0
    0.0074    5.3127   21.4973 H   0  0  0  0  0  0  0  0  0  0  0  0
   -0.5579    4.0789   22.6284 H   0  0  0  0  0  0  0  0  0  0  0  0
    2.5220   11.5024   14.9240 H   0  0  0  0  0  0  0  0  0  0  0  0
   10.4689    3.1980   20.3395 H   0  0  0  0  0  0  0  0  0  0  0  0
   12.0967    3.6292   21.1932 H   0  0  0  0  0  0  0  0  0  0  0  0
   -0.3904    5.8089   17.8093 H   0  0  0  0  0  0  0  0  0  0  0  0
    0.9834   15.4853   15.3811 H   0  0  0  0  0  0  0  0  0  0  0  0
    0.0143    8.1179   17.0104 H   0  0  0  0  0  0  0  0  0  0  0  0
    0.9037    9.7532   16.4095 H   0  0  0  0  0  0  0  0  0  0  0  0
   -0.2770   14.7669   17.3800 H   0  0  0  0  0  0  0  0  0  0  0  0
   -0.1351   12.4246   18.1715 H   0  0  0  0  0  0  0  0  0  0  0  0
  1 16  2  0  0  0  0
  2 37  2  0  0  0  0
  3 12  1  0  0  0  0
  3 14  1  0  0  0  0
  3 16  1  0  0  0  0
  4  5  1  0  0  0  0
  4 10  1  0  0  0  0
  4 15  1  0  0  0  0
  5 18  2  0  0  0  0
  6 15  1  0  0  0  0
  6 23  2  0  0  0  0
  7 20  2  0  0  0  0
  7 23  1  0  0  0  0
  8 20  1  0  0  0  0
  8 62  1  0  0  0  0
  8 63  1  0  0  0  0
  9 35  1  0  0  0  0
  9 37  1  0  0  0  0
  9 70  1  0  0  0  0
 10 11  1  0  0  0  0
 10 12  1  0  0  0  0
 10 40  1  0  0  0  0
 11 13  1  0  0  0  0
 11 41  1  0  0  0  0
 11 42  1  0  0  0  0
 12 43  1  0  0  0  0
 12 44  1  0  0  0  0
 13 14  1  0  0  0  0
 13 45  1  0  0  0  0
 13 46  1  0  0  0  0
 14 47  1  0  0  0  0
 14 48  1  0  0  0  0
 15 17  2  0  0  0  0
 16 21  1  0  0  0  0
 17 18  1  0  0  0  0
 17 20  1  0  0  0  0
 18 19  1  0  0  0  0
 19 24  1  0  0  0  0
 19 26  2  0  0  0  0
 21 32  2  0  0  0  0
 21 49  1  0  0  0  0
 22 25  1  0  0  0  0
 22 27  1  0  0  0  0
 22 28  1  0  0  0  0
 22 29  1  0  0  0  0
 23 50  1  0  0  0  0
 24 30  2  0  0  0  0
 24 51  1  0  0  0  0
 25 31  1  0  0  0  0
 25 34  2  0  0  0  0
 26 33  1  0  0  0  0
 26 52  1  0  0  0  0
 27 53  1  0  0  0  0
 27 54  1  0  0  0  0
 27 55  1  0  0  0  0
 28 56  1  0  0  0  0
 28 57  1  0  0  0  0
 28 58  1  0  0  0  0
 29 59  1  0  0  0  0
 29 60  1  0  0  0  0
 29 61  1  0  0  0  0
 30 36  1  0  0  0  0
 30 37  1  0  0  0  0
 31 35  2  0  0  0  0
 31 64  1  0  0  0  0
 32 65  1  0  0  0  0
 32 66  1  0  0  0  0
 33 36  2  0  0  0  0
 33 67  1  0  0  0  0
 34 38  1  0  0  0  0
 34 68  1  0  0  0  0
 35 39  1  0  0  0  0
 36 69  1  0  0  0  0
 38 39  2  0  0  0  0
 38 71  1  0  0  0  0
 39 72  1  0  0  0  0
M  END
> <PUBCHEM_COMPOUND_ID_TYPE>
0

> <PUBCHEM_TOTAL_CHARGE>
0

> <PUBCHEM_SUBSTANCE_ID>
170485135

> <PUBCHEM_SUBSTANCE_VERSION>
1

> <PUBCHEM_EXT_DATASOURCE_NAME>
Shanghai Institute of Organic Chemistry

> <PUBCHEM_EXT_DATASOURCE_REGID>
4hct

> <PUBCHEM_SUBSTANCE_COMMENT>
PDB code 4hct, binding affinity data from PDBbind-CN database: IC50=0.073uM

> <PUBCHEM_SUBSTANCE_SYNONYM>
4hct

> <PUBCHEM_XREF_EXT_ID>
4hct

> <PUBCHEM_EXT_DATASOURCE_URL>
http://www.sioc-ccbg.ac.cn/

> <PUBCHEM_EXT_SUBSTANCE_URL>
http://www.pdbbind-cn.org/quickpdb.asp?quickpdb=4hct

> <PUBCHEM_CID_ASSOCIATIONS>
72200985  1

> <PUBCHEM_CONFORMER_ID>
0A29658F00010001

> <PUBCHEM_COORDINATE_TYPE>
2
3
4

$$$$
170485134
  -OEChem-11262106393D

 37 39  0     0  0  0  0  0  0999 V2000
    6.0360    1.4280   21.8720 S   0  0  0  0  0  0  0  0  0  0  0  0
    4.7600    1.7300   22.2040 O   0  0  0  0  0  0  0  0  0  0  0  0
    6.2900    0.1800   21.0370 O   0  0  0  0  0  0  0  0  0  0  0  0
   10.1650    7.0990   19.5500 O   0  0  0  0  0  0  0  0  0  0  0  0
    9.7720    5.1600   18.7690 N   0  0  0  0  0  0  0  0  0  0  0  0
    8.6960    6.1090   20.4580 N   0  0  0  0  0  0  0  0  0  0  0  0
    6.5920    1.1400   23.4170 N   0  0  0  0  0  0  0  0  0  0  0  0
    8.0900    4.0000   19.9190 C   0  0  0  0  0  0  0  0  0  0  0  0
    8.9090    4.0540   18.7230 C   0  0  0  0  0  0  0  0  0  0  0  0
    7.9770    5.0620   20.6640 C   0  0  0  0  0  0  0  0  0  0  0  0
    6.7470    2.7910   21.3750 C   0  0  0  0  0  0  0  0  0  0  0  0
    7.5190    2.8870   20.2310 C   0  0  0  0  0  0  0  0  0  0  0  0
    7.1810    5.0660   21.7880 C   0  0  0  0  0  0  0  0  0  0  0  0
    6.5860    3.9000   22.1210 C   0  0  0  0  0  0  0  0  0  0  0  0
    9.5940    6.2170   19.5250 C   0  0  0  0  0  0  0  0  0  0  0  0
   10.8860    5.1170   17.8670 C   0  0  0  0  0  0  0  0  0  0  0  0
    7.8210    0.5070   23.8310 C   0  0  0  0  0  0  0  0  0  0  0  0
    8.4450    1.0130   24.8300 C   0  0  0  0  0  0  0  0  0  0  0  0
    8.4260   -0.4220   23.0580 C   0  0  0  0  0  0  0  0  0  0  0  0
    9.7370    0.7100   25.0550 C   0  0  0  0  0  0  0  0  0  0  0  0
    9.7380   -0.7360   23.2620 C   0  0  0  0  0  0  0  0  0  0  0  0
   10.3990   -0.1200   24.2780 C   0  0  0  0  0  0  0  0  0  0  0  0
    8.2596    4.1470   17.8525 H   0  0  0  0  0  0  0  0  0  0  0  0
    9.5036    3.1427   18.6590 H   0  0  0  0  0  0  0  0  0  0  0  0
    7.6454    2.0154   19.5888 H   0  0  0  0  0  0  0  0  0  0  0  0
    7.0377    5.9688   22.3817 H   0  0  0  0  0  0  0  0  0  0  0  0
    8.5507    6.9114   21.0707 H   0  0  0  0  0  0  0  0  0  0  0  0
    5.9617    3.8560   23.0134 H   0  0  0  0  0  0  0  0  0  0  0  0
   10.8121    5.9439   17.1607 H   0  0  0  0  0  0  0  0  0  0  0  0
   11.8136    5.2026   18.4329 H   0  0  0  0  0  0  0  0  0  0  0  0
   10.8760    4.1719   17.3241 H   0  0  0  0  0  0  0  0  0  0  0  0
    5.9812    1.4534   24.1714 H   0  0  0  0  0  0  0  0  0  0  0  0
    7.9248    1.6945   25.5030 H   0  0  0  0  0  0  0  0  0  0  0  0
    7.8640   -0.9220   22.2691 H   0  0  0  0  0  0  0  0  0  0  0  0
   10.2484    1.1644   25.9036 H   0  0  0  0  0  0  0  0  0  0  0  0
   10.2437   -1.4627   22.6262 H   0  0  0  0  0  0  0  0  0  0  0  0
   11.4590   -0.3105   24.4459 H   0  0  0  0  0  0  0  0  0  0  0  0
  1  2  2  0  0  0  0
  1  3  2  0  0  0  0
  1  7  1  0  0  0  0
  1 11  1  0  0  0  0
  4 15  2  0  0  0  0
  5  9  1  0  0  0  0
  5 15  1  0  0  0  0
  5 16  1  0  0  0  0
  6 10  1  0  0  0  0
  6 15  1  0  0  0  0
  6 27  1  0  0  0  0
  7 17  1  0  0  0  0
  7 32  1  0  0  0  0
  8  9  1  0  0  0  0
  8 10  2  0  0  0  0
  8 12  1  0  0  0  0
  9 23  1  0  0  0  0
  9 24  1  0  0  0  0
 10 13  1  0  0  0  0
 11 12  2  0  0  0  0
 11 14  1  0  0  0  0
 12 25  1  0  0  0  0
 13 14  2  0  0  0  0
 13 26  1  0  0  0  0
 14 28  1  0  0  0  0
 16 29  1  0  0  0  0
 16 30  1  0  0  0  0
 16 31  1  0  0  0  0
 17 18  2  0  0  0  0
 17 19  1  0  0  0  0
 18 20  1  0  0  0  0
 18 33  1  0  0  0  0
 19 21  2  0  0  0  0
 19 34  1  0  0  0  0
 20 22  2  0  0  0  0
 20 35  1  0  0  0  0
 21 22  1  0  0  0  0
 21 36  1  0  0  0  0
 22 37  1  0  0  0  0
M  END
> <PUBCHEM_COMPOUND_ID_TYPE>
0

> <PUBCHEM_TOTAL_CHARGE>
0

> <PUBCHEM_SUBSTANCE_ID>
170485134

> <PUBCHEM_SUBSTANCE_VERSION>
1

> <PUBCHEM_EXT_DATASOURCE_NAME>
Shanghai Institute of Organic Chemistry

> <PUBCHEM_EXT_DATASOURCE_REGID>
4hby

> <PUBCHEM_SUBSTANCE_COMMENT>
PDB code 4hby, binding affinity data from PDBbind-CN database: IC50=4.4uM

> <PUBCHEM_SUBSTANCE_SYNONYM>
4hby

> <PUBCHEM_XREF_EXT_ID>
4hby

> <PUBCHEM_EXT_DATASOURCE_URL>
http://www.sioc-ccbg.ac.cn/

> <PUBCHEM_EXT_SUBSTANCE_URL>
http://www.pdbbind-cn.org/quickpdb.asp?quickpdb=4hby

> <PUBCHEM_CID_ASSOCIATIONS>
71271969  1

> <PUBCHEM_CONFORMER_ID>
0A29658E00010001

> <PUBCHEM_COORDINATE_TYPE>
2
3
4

$$$$
170485133
  -OEChem-11262106393D

 37 39  0     0  0  0  0  0  0999 V2000
   49.8160    0.7520   22.1620 S   0  0  0  0  0  0  0  0  0  0  0  0
   48.8200    1.0770   23.1520 O   0  0  0  0  0  0  0  0  0  0  0  0
   49.8120   -0.1010   21.0900 O   0  0  0  0  0  0  0  0  0  0  0  0
   53.5650    7.1410   19.4030 O   0  0  0  0  0  0  0  0  0  0  0  0
   51.1570    0.2970   22.9530 N   0  0  0  0  0  0  0  0  0  0  0  0
   53.0590    5.0500   18.6020 N   0  0  0  0  0  0  0  0  0  0  0  0
   51.9750    5.9960   20.4340 N   0  0  0  0  0  0  0  0  0  0  0  0
   52.3450   -0.2860   22.2360 C   0  0  0  0  0  0  0  0  0  0  0  0
   51.5260    0.5500   24.3800 C   0  0  0  0  0  0  0  0  0  0  0  0
   53.0150    0.4690   24.3790 C   0  0  0  0  0  0  0  0  0  0  0  0
   53.2710   -0.6420   23.3610 C   0  0  0  0  0  0  0  0  0  0  0  0
   50.3320    2.2940   21.5860 C   0  0  0  0  0  0  0  0  0  0  0  0
   51.4560    3.6350   19.9530 C   0  0  0  0  0  0  0  0  0  0  0  0
   50.9900    2.3900   20.3560 C   0  0  0  0  0  0  0  0  0  0  0  0
   52.0740    3.9020   18.5960 C   0  0  0  0  0  0  0  0  0  0  0  0
   51.3020    4.7550   20.7690 C   0  0  0  0  0  0  0  0  0  0  0  0
   50.1300    3.4580   22.3570 C   0  0  0  0  0  0  0  0  0  0  0  0
   50.5800    4.6970   21.9600 C   0  0  0  0  0  0  0  0  0  0  0  0
   52.8870    6.1330   19.3740 C   0  0  0  0  0  0  0  0  0  0  0  0
   54.1920    5.0510   17.6010 C   0  0  0  0  0  0  0  0  0  0  0  0
   52.0607   -1.1786   21.6594 H   0  0  0  0  0  0  0  0  0  0  0  0
   52.8043    0.4539   21.5639 H   0  0  0  0  0  0  0  0  0  0  0  0
   51.1874    1.5458   24.7022 H   0  0  0  0  0  0  0  0  0  0  0  0
   51.0918   -0.2160   25.0393 H   0  0  0  0  0  0  0  0  0  0  0  0
   53.4668    1.4187   24.0566 H   0  0  0  0  0  0  0  0  0  0  0  0
   53.4013    0.1978   25.3726 H   0  0  0  0  0  0  0  0  0  0  0  0
   53.0229   -1.6281   23.7806 H   0  0  0  0  0  0  0  0  0  0  0  0
   54.3190   -0.6388   23.0269 H   0  0  0  0  0  0  0  0  0  0  0  0
   51.1329    1.5148   19.7325 H   0  0  0  0  0  0  0  0  0  0  0  0
   51.2679    4.1375   17.8856 H   0  0  0  0  0  0  0  0  0  0  0  0
   52.5991    2.9933   18.2667 H   0  0  0  0  0  0  0  0  0  0  0  0
   49.5998    3.3735   23.2987 H   0  0  0  0  0  0  0  0  0  0  0  0
   50.3819    5.5867   22.5467 H   0  0  0  0  0  0  0  0  0  0  0  0
   51.7778    6.8026   20.9913 H   0  0  0  0  0  0  0  0  0  0  0  0
   54.8074    5.9514   17.7447 H   0  0  0  0  0  0  0  0  0  0  0  0
   53.7802    5.0473   16.5810 H   0  0  0  0  0  0  0  0  0  0  0  0
   54.8129    4.1551   17.7490 H   0  0  0  0  0  0  0  0  0  0  0  0
  1  2  2  0  0  0  0
  1  3  2  0  0  0  0
  1  5  1  0  0  0  0
  1 12  1  0  0  0  0
  4 19  2  0  0  0  0
  5  8  1  0  0  0  0
  5  9  1  0  0  0  0
  6 15  1  0  0  0  0
  6 19  1  0  0  0  0
  6 20  1  0  0  0  0
  7 16  1  0  0  0  0
  7 19  1  0  0  0  0
  7 34  1  0  0  0  0
  8 11  1  0  0  0  0
  8 21  1  0  0  0  0
  8 22  1  0  0  0  0
  9 10  1  0  0  0  0
  9 23  1  0  0  0  0
  9 24  1  0  0  0  0
 10 11  1  0  0  0  0
 10 25  1  0  0  0  0
 10 26  1  0  0  0  0
 11 27  1  0  0  0  0
 11 28  1  0  0  0  0
 12 14  2  0  0  0  0
 12 17  1  0  0  0  0
 13 14  1  0  0  0  0
 13 15  1  0  0  0  0
 13 16  2  0  0  0  0
 14 29  1  0  0  0  0
 15 30  1  0  0  0  0
 15 31  1  0  0  0  0
 16 18  1  0  0  0  0
 17 18  2  0  0  0  0
 17 32  1  0  0  0  0
 18 33  1  0  0  0  0
 20 35  1  0  0  0  0
 20 36  1  0  0  0  0
 20 37  1  0  0  0  0
M  END
> <PUBCHEM_COMPOUND_ID_TYPE>
0

> <PUBCHEM_TOTAL_CHARGE>
0

> <PUBCHEM_SUBSTANCE_ID>
170485133

> <PUBCHEM_SUBSTANCE_VERSION>
1

> <PUBCHEM_EXT_DATASOURCE_NAME>
Shanghai Institute of Organic Chemistry

> <PUBCHEM_EXT_DATASOURCE_REGID>
4hbx

> <PUBCHEM_SUBSTANCE_COMMENT>
PDB code 4hbx, binding affinity data from PDBbind-CN database: IC50=1.9uM

> <PUBCHEM_SUBSTANCE_SYNONYM>
4hbx

> <PUBCHEM_XREF_EXT_ID>
4hbx

> <PUBCHEM_EXT_DATASOURCE_URL>
http://www.sioc-ccbg.ac.cn/

> <PUBCHEM_EXT_SUBSTANCE_URL>
http://www.pdbbind-cn.org/quickpdb.asp?quickpdb=4hbx

> <PUBCHEM_CID_ASSOCIATIONS>
66553125  1

> <PUBCHEM_CONFORMER_ID>
0A29658D00010001

> <PUBCHEM_COORDINATE_TYPE>
2
3
4

$$$$
170485132
  -OEChem-11262106393D

 33 34  0     0  0  0  0  0  0999 V2000
   27.3170   14.6020   -2.9210 S   0  0  0  0  0  0  0  0  0  0  0  0
   27.7270   13.2090   -3.2990 O   0  0  0  0  0  0  0  0  0  0  0  0
   26.4640   14.8550   -1.7890 O   0  0  0  0  0  0  0  0  0  0  0  0
   33.4400   18.4760    0.3330 O   0  0  0  0  0  0  0  0  0  0  0  0
   31.2510   18.0710    0.8450 N   0  0  0  0  0  0  0  0  0  0  0  0
   32.4940   16.7420   -0.7730 N   0  0  0  0  0  0  0  0  0  0  0  0
   27.2240   15.5870   -4.1500 N   0  0  0  0  0  0  0  0  0  0  0  0
   30.0920   16.3850   -0.5530 C   0  0  0  0  0  0  0  0  0  0  0  0
   30.0320   17.2050    0.7520 C   0  0  0  0  0  0  0  0  0  0  0  0
   31.2950   16.1520   -1.2020 C   0  0  0  0  0  0  0  0  0  0  0  0
   28.8730   15.1950   -2.2720 C   0  0  0  0  0  0  0  0  0  0  0  0
   28.8680   15.9120   -1.0470 C   0  0  0  0  0  0  0  0  0  0  0  0
   31.2730   15.5220   -2.4410 C   0  0  0  0  0  0  0  0  0  0  0  0
   30.0800   15.0130   -2.9360 C   0  0  0  0  0  0  0  0  0  0  0  0
   32.4470   17.7690    0.1800 C   0  0  0  0  0  0  0  0  0  0  0  0
   31.1540   19.1450    1.9100 C   0  0  0  0  0  0  0  0  0  0  0  0
   26.9900   17.0030   -3.8260 C   0  0  0  0  0  0  0  0  0  0  0  0
   26.9350   17.8170   -5.1240 C   0  0  0  0  0  0  0  0  0  0  0  0
   29.9986   16.5228    1.6142 H   0  0  0  0  0  0  0  0  0  0  0  0
   29.1313   17.8365    0.7489 H   0  0  0  0  0  0  0  0  0  0  0  0
   27.9439   16.0889   -0.5086 H   0  0  0  0  0  0  0  0  0  0  0  0
   32.1851   15.4284   -3.0192 H   0  0  0  0  0  0  0  0  0  0  0  0
   33.3706   16.4337   -1.1424 H   0  0  0  0  0  0  0  0  0  0  0  0
   30.0904   14.4578   -3.8670 H   0  0  0  0  0  0  0  0  0  0  0  0
   27.3185   15.2679   -5.0930 H   0  0  0  0  0  0  0  0  0  0  0  0
   32.0808   19.7374    1.9188 H   0  0  0  0  0  0  0  0  0  0  0  0
   31.0106   18.6741    2.8937 H   0  0  0  0  0  0  0  0  0  0  0  0
   30.3003   19.8030    1.6905 H   0  0  0  0  0  0  0  0  0  0  0  0
   26.0358   17.1041   -3.2881 H   0  0  0  0  0  0  0  0  0  0  0  0
   27.8090   17.3753   -3.1931 H   0  0  0  0  0  0  0  0  0  0  0  0
   26.7601   18.8764   -4.8852 H   0  0  0  0  0  0  0  0  0  0  0  0
   26.1161   17.4437   -5.7565 H   0  0  0  0  0  0  0  0  0  0  0  0
   27.8893   17.7150   -5.6615 H   0  0  0  0  0  0  0  0  0  0  0  0
  1  2  2  0  0  0  0
  1  3  2  0  0  0  0
  1  7  1  0  0  0  0
  1 11  1  0  0  0  0
  4 15  2  0  0  0  0
  5  9  1  0  0  0  0
  5 15  1  0  0  0  0
  5 16  1  0  0  0  0
  6 10  1  0  0  0  0
  6 15  1  0  0  0  0
  6 23  1  0  0  0  0
  7 17  1  0  0  0  0
  7 25  1  0  0  0  0
  8  9  1  0  0  0  0
  8 10  1  0  0  0  0
  8 12  2  0  0  0  0
  9 19  1  0  0  0  0
  9 20  1  0  0  0  0
 10 13  2  0  0  0  0
 11 12  1  0  0  0  0
 11 14  2  0  0  0  0
 12 21  1  0  0  0  0
 13 14  1  0  0  0  0
 13 22  1  0  0  0  0
 14 24  1  0  0  0  0
 16 26  1  0  0  0  0
 16 27  1  0  0  0  0
 16 28  1  0  0  0  0
 17 18  1  0  0  0  0
 17 29  1  0  0  0  0
 17 30  1  0  0  0  0
 18 31  1  0  0  0  0
 18 32  1  0  0  0  0
 18 33  1  0  0  0  0
M  END
> <PUBCHEM_COMPOUND_ID_TYPE>
0

> <PUBCHEM_TOTAL_CHARGE>
0

> <PUBCHEM_SUBSTANCE_ID>
170485132

> <PUBCHEM_SUBSTANCE_VERSION>
1

> <PUBCHEM_EXT_DATASOURCE_NAME>
Shanghai Institute of Organic Chemistry

> <PUBCHEM_EXT_DATASOURCE_REGID>
4hbw

> <PUBCHEM_SUBSTANCE_COMMENT>
PDB code 4hbw, binding affinity data from PDBbind-CN database: IC50=4.8uM

> <PUBCHEM_SUBSTANCE_SYNONYM>
4hbw

> <PUBCHEM_XREF_EXT_ID>
4hbw

> <PUBCHEM_EXT_DATASOURCE_URL>
http://www.sioc-ccbg.ac.cn/

> <PUBCHEM_EXT_SUBSTANCE_URL>
http://www.pdbbind-cn.org/quickpdb.asp?quickpdb=4hbw

> <PUBCHEM_CID_ASSOCIATIONS>
66553124  1

> <PUBCHEM_CONFORMER_ID>
0A29658C00010001

> <PUBCHEM_COORDINATE_TYPE>
2
3
4

$$$$
170485129
  -OEChem-11262106393D

 62 64  0     0  0  0  0  0  0999 V2000
   18.4840    8.6530   11.5570 S   0  0  0  0  0  0  0  0  0  0  0  0
   16.8890   10.7120   17.2100 O   0  0  0  0  0  0  0  0  0  0  0  0
   19.5060    9.3800   10.8510 O   0  0  0  0  0  0  0  0  0  0  0  0
   19.1540    7.7190   12.4310 O   0  0  0  0  0  0  0  0  0  0  0  0
   17.7130    9.6790   12.4400 N   0  0  0  0  0  0  0  0  0  0  0  0
   14.8020   11.0980   16.4820 N   0  0  0  0  0  0  0  0  0  0  0  0
   16.6490   10.3150   14.9270 C   0  0  0  0  0  0  0  0  0  0  0  0
   14.0860   11.3790   17.7560 C   0  0  0  0  0  0  0  0  0  0  0  0
   17.7060   11.2580   14.3650 C   0  0  0  0  0  0  0  0  0  0  0  0
   15.6270   10.1590   13.7950 C   0  0  0  0  0  0  0  0  0  0  0  0
   18.5310   10.5850   13.2630 C   0  0  0  0  0  0  0  0  0  0  0  0
   16.2360    9.7630   12.4360 C   0  0  0  0  0  0  0  0  0  0  0  0
   14.8690   12.0960   18.8600 C   0  0  0  0  0  0  0  0  0  0  0  0
   13.4830   10.0690   18.3050 C   0  0  0  0  0  0  0  0  0  0  0  0
   16.1000   10.7500   16.2920 C   0  0  0  0  0  0  0  0  0  0  0  0
   13.9400   12.9710   19.7110 C   0  0  0  0  0  0  0  0  0  0  0  0
   12.9780   10.0060   19.7660 C   0  0  0  0  0  0  0  0  0  0  0  0
   13.1740   12.2420   20.8210 C   0  0  0  0  0  0  0  0  0  0  0  0
   12.1990   11.2250   20.2580 C   0  0  0  0  0  0  0  0  0  0  0  0
   17.6280    7.8470   10.4300 C   0  0  0  0  0  0  0  0  0  0  0  0
   16.9330    8.5770    9.3150 C   0  0  0  0  0  0  0  0  0  0  0  0
   17.4950    6.3430   10.4030 C   0  0  0  0  0  0  0  0  0  0  0  0
   16.2090    7.8660    8.3540 C   0  0  0  0  0  0  0  0  0  0  0  0
   16.7450    5.7330    9.3960 C   0  0  0  0  0  0  0  0  0  0  0  0
   16.1150    6.4730    8.3910 C   0  0  0  0  0  0  0  0  0  0  0  0
   16.9810   10.0800    9.1960 C   0  0  0  0  0  0  0  0  0  0  0  0
   18.1290    5.4350   11.4290 C   0  0  0  0  0  0  0  0  0  0  0  0
   15.3190    5.7600    7.3240 C   0  0  0  0  0  0  0  0  0  0  0  0
   17.0528    9.3380   15.1924 H   0  0  0  0  0  0  0  0  0  0  0  0
   13.3212   12.1033   17.4757 H   0  0  0  0  0  0  0  0  0  0  0  0
   18.3786   11.5438   15.1738 H   0  0  0  0  0  0  0  0  0  0  0  0
   17.2026   12.1255   13.9382 H   0  0  0  0  0  0  0  0  0  0  0  0
   15.1490   11.1293   13.6603 H   0  0  0  0  0  0  0  0  0  0  0  0
   14.9476    9.3579   14.0862 H   0  0  0  0  0  0  0  0  0  0  0  0
   19.3191    9.9990   13.7359 H   0  0  0  0  0  0  0  0  0  0  0  0
   18.9354   11.3631   12.6156 H   0  0  0  0  0  0  0  0  0  0  0  0
   15.8565    8.7717   12.1882 H   0  0  0  0  0  0  0  0  0  0  0  0
   15.9581   10.5361   11.7196 H   0  0  0  0  0  0  0  0  0  0  0  0
   15.6233   12.7326   18.3975 H   0  0  0  0  0  0  0  0  0  0  0  0
   15.3321   11.3479   19.5034 H   0  0  0  0  0  0  0  0  0  0  0  0
   14.3044    9.3534   18.2684 H   0  0  0  0  0  0  0  0  0  0  0  0
   12.5915    9.9037   17.7001 H   0  0  0  0  0  0  0  0  0  0  0  0
   13.1894   13.3759   19.0322 H   0  0  0  0  0  0  0  0  0  0  0  0
   14.5751   13.7062   20.2053 H   0  0  0  0  0  0  0  0  0  0  0  0
   12.2899    9.1621   19.8161 H   0  0  0  0  0  0  0  0  0  0  0  0
   13.8660    9.9359   20.3943 H   0  0  0  0  0  0  0  0  0  0  0  0
   14.2397   11.1780   15.6348 H   0  0  0  0  0  0  0  0  0  0  0  0
   12.6087   12.9806   21.3893 H   0  0  0  0  0  0  0  0  0  0  0  0
   13.8951   11.7157   21.4464 H   0  0  0  0  0  0  0  0  0  0  0  0
   11.6462   11.6665   19.4288 H   0  0  0  0  0  0  0  0  0  0  0  0
   11.4956   10.9224   21.0337 H   0  0  0  0  0  0  0  0  0  0  0  0
   15.7054    8.4119    7.5562 H   0  0  0  0  0  0  0  0  0  0  0  0
   16.6477    4.6474    9.3932 H   0  0  0  0  0  0  0  0  0  0  0  0
   17.4309   10.3534    8.2416 H   0  0  0  0  0  0  0  0  0  0  0  0
   15.9685   10.4800    9.2497 H   0  0  0  0  0  0  0  0  0  0  0  0
   17.5782   10.4888   10.0110 H   0  0  0  0  0  0  0  0  0  0  0  0
   19.2104    5.5709   11.4137 H   0  0  0  0  0  0  0  0  0  0  0  0
   17.7444    5.6825   12.4184 H   0  0  0  0  0  0  0  0  0  0  0  0
   17.8884    4.3984   11.1930 H   0  0  0  0  0  0  0  0  0  0  0  0
   15.9716    5.0753    6.7823 H   0  0  0  0  0  0  0  0  0  0  0  0
   14.5090    5.1994    7.7905 H   0  0  0  0  0  0  0  0  0  0  0  0
   14.9039    6.4925    6.6317 H   0  0  0  0  0  0  0  0  0  0  0  0
  1  3  2  0  0  0  0
  1  4  2  0  0  0  0
  1  5  1  0  0  0  0
  1 20  1  0  0  0  0
  2 15  2  0  0  0  0
  5 11  1  0  0  0  0
  5 12  1  0  0  0  0
  6  8  1  0  0  0  0
  6 15  1  0  0  0  0
  6 47  1  0  0  0  0
  7  9  1  0  0  0  0
  7 10  1  0  0  0  0
  7 15  1  0  0  0  0
  7 29  1  0  0  0  0
  8 13  1  0  0  0  0
  8 14  1  0  0  0  0
  8 30  1  0  0  0  0
  9 11  1  0  0  0  0
  9 31  1  0  0  0  0
  9 32  1  0  0  0  0
 10 12  1  0  0  0  0
 10 33  1  0  0  0  0
 10 34  1  0  0  0  0
 11 35  1  0  0  0  0
 11 36  1  0  0  0  0
 12 37  1  0  0  0  0
 12 38  1  0  0  0  0
 13 16  1  0  0  0  0
 13 39  1  0  0  0  0
 13 40  1  0  0  0  0
 14 17  1  0  0  0  0
 14 41  1  0  0  0  0
 14 42  1  0  0  0  0
 16 18  1  0  0  0  0
 16 43  1  0  0  0  0
 16 44  1  0  0  0  0
 17 19  1  0  0  0  0
 17 45  1  0  0  0  0
 17 46  1  0  0  0  0
 18 19  1  0  0  0  0
 18 48  1  0  0  0  0
 18 49  1  0  0  0  0
 19 50  1  0  0  0  0
 19 51  1  0  0  0  0
 20 21  2  0  0  0  0
 20 22  1  0  0  0  0
 21 23  1  0  0  0  0
 21 26  1  0  0  0  0
 22 24  2  0  0  0  0
 22 27  1  0  0  0  0
 23 25  2  0  0  0  0
 23 52  1  0  0  0  0
 24 25  1  0  0  0  0
 24 53  1  0  0  0  0
 25 28  1  0  0  0  0
 26 54  1  0  0  0  0
 26 55  1  0  0  0  0
 26 56  1  0  0  0  0
 27 57  1  0  0  0  0
 27 58  1  0  0  0  0
 27 59  1  0  0  0  0
 28 60  1  0  0  0  0
 28 61  1  0  0  0  0
 28 62  1  0  0  0  0
M  END
> <PUBCHEM_COMPOUND_ID_TYPE>
0

> <PUBCHEM_TOTAL_CHARGE>
0

> <PUBCHEM_SUBSTANCE_ID>
170485129

> <PUBCHEM_SUBSTANCE_VERSION>
1

> <PUBCHEM_EXT_DATASOURCE_NAME>
Shanghai Institute of Organic Chemistry

> <PUBCHEM_EXT_DATASOURCE_REGID>
4hai

> <PUBCHEM_SUBSTANCE_COMMENT>
PDB code 4hai, binding affinity data from PDBbind-CN database: IC50=7.9nM

> <PUBCHEM_SUBSTANCE_SYNONYM>
4hai

> <PUBCHEM_XREF_EXT_ID>
4hai

> <PUBCHEM_EXT_DATASOURCE_URL>
http://www.sioc-ccbg.ac.cn/

> <PUBCHEM_EXT_SUBSTANCE_URL>
http://www.pdbbind-cn.org/quickpdb.asp?quickpdb=4hai

> <PUBCHEM_CID_ASSOCIATIONS>
2110176  1

> <PUBCHEM_CONFORMER_ID>
0A29658900010001

> <PUBCHEM_COORDINATE_TYPE>
2
3
4

$$$$
170485124
  -OEChem-11262106393D

 45 47  0     0  0  0  0  0  0999 V2000
  270.6510  -22.7970   17.2810 Cl  0  0  0  0  0  0  0  0  0  0  0  0
  270.2410  -19.7520   24.4260 Cl  0  0  0  0  0  0  0  0  0  0  0  0
  269.5100  -25.1810   21.5400 O   0  0  0  0  0  0  0  0  0  0  0  0
  272.1740  -24.2400   22.8170 O   0  0  0  0  0  0  0  0  0  0  0  0
  268.0860  -28.2810   20.5960 O   0  0  0  0  0  0  0  0  0  0  0  0
  270.8370  -31.6800   21.6650 O   0  0  0  0  0  0  0  0  0  0  0  0
  269.1440  -28.1570   22.6350 N   0  0  0  0  0  0  0  0  0  0  0  0
  269.4750  -29.9400   21.2040 N   0  0  0  0  0  0  0  0  0  0  0  0
  275.3300  -23.8100   29.9290 N   0  0  0  0  0  0  0  0  0  0  0  0
  268.5460  -26.8680   23.0310 C   0  0  0  0  0  0  0  0  0  0  0  0
  269.5520  -25.7170   22.8590 C   0  0  0  0  0  0  0  0  0  0  0  0
  270.5160  -24.4000   20.9780 C   0  0  0  0  0  0  0  0  0  0  0  0
  271.7700  -23.9460   21.5330 C   0  0  0  0  0  0  0  0  0  0  0  0
  268.8540  -28.7560   21.4330 C   0  0  0  0  0  0  0  0  0  0  0  0
  270.0380  -28.7490   23.5670 C   0  0  0  0  0  0  0  0  0  0  0  0
  270.2100  -24.0190   19.6490 C   0  0  0  0  0  0  0  0  0  0  0  0
  270.6340  -29.9380   23.2860 C   0  0  0  0  0  0  0  0  0  0  0  0
  272.6400  -23.1390   20.7460 C   0  0  0  0  0  0  0  0  0  0  0  0
  272.0060  -23.3130   23.8220 C   0  0  0  0  0  0  0  0  0  0  0  0
  270.3460  -30.6030   22.0070 C   0  0  0  0  0  0  0  0  0  0  0  0
  271.0880  -23.2230   18.8850 C   0  0  0  0  0  0  0  0  0  0  0  0
  272.3090  -22.7770   19.4290 C   0  0  0  0  0  0  0  0  0  0  0  0
  272.5950  -23.5850   25.0820 C   0  0  0  0  0  0  0  0  0  0  0  0
  272.4650  -22.6680   26.1680 C   0  0  0  0  0  0  0  0  0  0  0  0
  271.2750  -22.1110   23.6450 C   0  0  0  0  0  0  0  0  0  0  0  0
  271.7250  -21.4780   25.9470 C   0  0  0  0  0  0  0  0  0  0  0  0
  271.1350  -21.1950   24.6970 C   0  0  0  0  0  0  0  0  0  0  0  0
  273.0270  -22.8510   27.4910 C   0  0  0  0  0  0  0  0  0  0  0  0
  273.8540  -23.8590   27.8110 C   0  0  0  0  0  0  0  0  0  0  0  0
  274.6700  -23.8320   28.9800 C   0  0  0  0  0  0  0  0  0  0  0  0
  267.6810  -26.6742   22.3963 H   0  0  0  0  0  0  0  0  0  0  0  0
  268.2560  -26.9249   24.0802 H   0  0  0  0  0  0  0  0  0  0  0  0
  269.2950  -24.9250   23.5623 H   0  0  0  0  0  0  0  0  0  0  0  0
  270.5540  -26.1036   23.0432 H   0  0  0  0  0  0  0  0  0  0  0  0
  270.2470  -28.2474   24.5119 H   0  0  0  0  0  0  0  0  0  0  0  0
  269.2710  -24.3497   19.2049 H   0  0  0  0  0  0  0  0  0  0  0  0
  269.2600  -30.3900   20.3142 H   0  0  0  0  0  0  0  0  0  0  0  0
  271.3180  -30.3936   24.0016 H   0  0  0  0  0  0  0  0  0  0  0  0
  273.5820  -22.7950   21.1737 H   0  0  0  0  0  0  0  0  0  0  0  0
  272.9860  -22.1608   18.8375 H   0  0  0  0  0  0  0  0  0  0  0  0
  273.1560  -24.5087   25.2239 H   0  0  0  0  0  0  0  0  0  0  0  0
  270.8160  -21.8967   22.6796 H   0  0  0  0  0  0  0  0  0  0  0  0
  271.6090  -20.7647   26.7630 H   0  0  0  0  0  0  0  0  0  0  0  0
  272.7640  -22.1324   28.2674 H   0  0  0  0  0  0  0  0  0  0  0  0
  273.9030  -24.7278   27.1547 H   0  0  0  0  0  0  0  0  0  0  0  0
  1 21  1  0  0  0  0
  2 27  1  0  0  0  0
  3 11  1  0  0  0  0
  3 12  1  0  0  0  0
  4 13  1  0  0  0  0
  4 19  1  0  0  0  0
  5 14  2  0  0  0  0
  6 20  2  0  0  0  0
  7 10  1  0  0  0  0
  7 14  1  0  0  0  0
  7 15  1  0  0  0  0
  8 14  1  0  0  0  0
  8 20  1  0  0  0  0
  8 37  1  0  0  0  0
  9 30  3  0  0  0  0
 10 11  1  0  0  0  0
 10 31  1  0  0  0  0
 10 32  1  0  0  0  0
 11 33  1  0  0  0  0
 11 34  1  0  0  0  0
 12 13  1  0  0  0  0
 12 16  2  0  0  0  0
 13 18  2  0  0  0  0
 15 17  2  0  0  0  0
 15 35  1  0  0  0  0
 16 21  1  0  0  0  0
 16 36  1  0  0  0  0
 17 20  1  0  0  0  0
 17 38  1  0  0  0  0
 18 22  1  0  0  0  0
 18 39  1  0  0  0  0
 19 23  2  0  0  0  0
 19 25  1  0  0  0  0
 21 22  2  0  0  0  0
 22 40  1  0  0  0  0
 23 24  1  0  0  0  0
 23 41  1  0  0  0  0
 24 26  2  0  0  0  0
 24 28  1  0  0  0  0
 25 27  2  0  0  0  0
 25 42  1  0  0  0  0
 26 27  1  0  0  0  0
 26 43  1  0  0  0  0
 28 29  2  0  0  0  0
 28 44  1  0  0  0  0
 29 30  1  0  0  0  0
 29 45  1  0  0  0  0
M  END
> <PUBCHEM_COMPOUND_ID_TYPE>
0

> <PUBCHEM_TOTAL_CHARGE>
0

> <PUBCHEM_SUBSTANCE_ID>
170485124

> <PUBCHEM_SUBSTANCE_VERSION>
1

> <PUBCHEM_EXT_DATASOURCE_NAME>
Shanghai Institute of Organic Chemistry

> <PUBCHEM_EXT_DATASOURCE_REGID>
4h4m

> <PUBCHEM_SUBSTANCE_COMMENT>
PDB code 4h4m, binding affinity data from PDBbind-CN database: IC50=3.0nM

> <PUBCHEM_SUBSTANCE_SYNONYM>
4h4m

> <PUBCHEM_XREF_EXT_ID>
4h4m

> <PUBCHEM_EXT_DATASOURCE_URL>
http://www.sioc-ccbg.ac.cn/

> <PUBCHEM_EXT_SUBSTANCE_URL>
http://www.pdbbind-cn.org/quickpdb.asp?quickpdb=4h4m

> <PUBCHEM_CID_ASSOCIATIONS>
56834912  1

> <PUBCHEM_CONFORMER_ID>
0A29658400010001

> <PUBCHEM_COORDINATE_TYPE>
2
3
4

$$$$
170485118
  -OEChem-11262106393D

 54 54  0     1  0  0  0  0  0999 V2000
   43.2100   23.2430   60.6060 O   0  0  0  0  0  0  0  0  0  0  0  0
   40.4940   18.7410   65.7990 O   0  0  0  0  0  0  0  0  0  0  0  0
   39.9280   19.1950   63.3140 O   0  0  0  0  0  0  0  0  0  0  0  0
   43.6830   20.4740   66.3350 O   0  5  0  0  0  0  0  0  0  0  0  0
   42.5280   19.3790   67.7810 O   0  0  0  0  0  0  0  0  0  0  0  0
   43.8490   28.1040   58.3850 C   0  0  0  0  0  0  0  0  0  0  0  0
   44.9010   29.1130   58.0510 C   0  0  0  0  0  0  0  0  0  0  0  0
   44.3410   27.4100   59.6110 C   0  0  0  0  0  0  0  0  0  0  0  0
   44.9940   29.4090   56.5850 C   0  0  0  0  0  0  0  0  0  0  0  0
   43.5100   26.2040   59.9430 C   0  0  0  0  0  0  0  0  0  0  0  0
   46.2790   30.1530   56.4750 C   0  0  0  0  0  0  0  0  0  0  0  0
   44.2270   25.3180   60.9270 C   0  0  0  0  0  0  0  0  0  0  0  0
   46.8820   30.0560   55.1250 C   0  0  0  0  0  0  0  0  0  0  0  0
   43.2670   24.2760   61.5180 C   0  0  0  0  0  0  0  0  0  0  0  0
   47.5590   31.3570   54.8470 C   0  0  0  0  0  0  0  0  0  0  0  0
   42.4740   22.1340   60.7410 C   0  0  0  0  0  0  0  0  0  0  0  0
   42.0540   21.5930   61.9350 C   0  0  0  0  0  0  0  0  0  0  0  0
   41.3030   20.4400   61.9370 C   0  0  0  0  0  0  0  0  0  0  0  0
   42.1800   21.4970   59.5750 C   0  0  0  0  0  0  0  0  0  0  0  0
   41.9010   20.0800   64.2100 C   0  0  0  0  0  0  0  0  0  0  0  0
   40.9090   19.8850   63.1320 C   0  0  0  0  0  0  0  0  0  0  0  0
   41.0030   19.8130   60.7610 C   0  0  0  0  0  0  0  0  0  0  0  0
   41.4290   20.3640   59.5830 C   0  0  0  0  0  0  0  0  0  0  0  0
   41.6050   19.5150   65.5700 C   0  0  3  0  0  0  0  0  0  0  0  0
   42.6770   19.7970   66.6280 C   0  0  0  0  0  0  0  0  0  0  0  0
   42.8808   28.5757   58.5532 H   0  0  0  0  0  0  0  0  0  0  0  0
   43.6910   27.4038   57.5647 H   0  0  0  0  0  0  0  0  0  0  0  0
   45.8612   28.7046   58.3662 H   0  0  0  0  0  0  0  0  0  0  0  0
   44.6400   30.0415   58.5587 H   0  0  0  0  0  0  0  0  0  0  0  0
   45.3643   27.0809   59.4302 H   0  0  0  0  0  0  0  0  0  0  0  0
   44.2803   28.1075   60.4464 H   0  0  0  0  0  0  0  0  0  0  0  0
   44.1424   29.9793   56.2141 H   0  0  0  0  0  0  0  0  0  0  0  0
   44.9726   28.5093   55.9700 H   0  0  0  0  0  0  0  0  0  0  0  0
   42.5705   26.5346   60.3860 H   0  0  0  0  0  0  0  0  0  0  0  0
   43.3273   25.6395   59.0287 H   0  0  0  0  0  0  0  0  0  0  0  0
   46.9801   29.7173   57.1868 H   0  0  0  0  0  0  0  0  0  0  0  0
   46.0751   31.2048   56.6757 H   0  0  0  0  0  0  0  0  0  0  0  0
   45.0353   24.7999   60.4110 H   0  0  0  0  0  0  0  0  0  0  0  0
   44.6193   25.9346   61.7357 H   0  0  0  0  0  0  0  0  0  0  0  0
   46.1153   29.8555   54.3766 H   0  0  0  0  0  0  0  0  0  0  0  0
   47.5979   29.2351   55.0833 H   0  0  0  0  0  0  0  0  0  0  0  0
   43.6182   23.9243   62.4881 H   0  0  0  0  0  0  0  0  0  0  0  0
   42.2792   24.7043   61.6883 H   0  0  0  0  0  0  0  0  0  0  0  0
   46.8248   32.1619   54.8819 H   0  0  0  0  0  0  0  0  0  0  0  0
   48.3285   31.5326   55.5987 H   0  0  0  0  0  0  0  0  0  0  0  0
   48.0163   31.3232   53.8581 H   0  0  0  0  0  0  0  0  0  0  0  0
   42.3156   22.0765   62.8762 H   0  0  0  0  0  0  0  0  0  0  0  0
   42.5484   21.8971   58.6304 H   0  0  0  0  0  0  0  0  0  0  0  0
   42.7945   19.5549   63.8724 H   0  0  0  0  0  0  0  0  0  0  0  0
   41.9539   21.1589   64.3558 H   0  0  0  0  0  0  0  0  0  0  0  0
   40.4312   18.8850   60.7609 H   0  0  0  0  0  0  0  0  0  0  0  0
   41.1627   19.8883   58.6391 H   0  0  0  0  0  0  0  0  0  0  0  0
   40.6504   19.5527   66.0948 H   0  0  0  0  0  0  0  0  0  0  0  0
   39.9630   18.7011   65.0002 H   0  0  0  0  0  0  0  0  0  0  0  0
  1 14  1  0  0  0  0
  1 16  1  0  0  0  0
  2 24  1  0  0  0  0
  2 54  1  0  0  0  0
  3 21  2  0  0  0  0
  4 25  1  0  0  0  0
  5 25  2  0  0  0  0
  6  7  1  0  0  0  0
  6  8  1  0  0  0  0
  6 26  1  0  0  0  0
  6 27  1  0  0  0  0
  7  9  1  0  0  0  0
  7 28  1  0  0  0  0
  7 29  1  0  0  0  0
  8 10  1  0  0  0  0
  8 30  1  0  0  0  0
  8 31  1  0  0  0  0
  9 11  1  0  0  0  0
  9 32  1  0  0  0  0
  9 33  1  0  0  0  0
 10 12  1  0  0  0  0
 10 34  1  0  0  0  0
 10 35  1  0  0  0  0
 11 13  1  0  0  0  0
 11 36  1  0  0  0  0
 11 37  1  0  0  0  0
 12 14  1  0  0  0  0
 12 38  1  0  0  0  0
 12 39  1  0  0  0  0
 13 15  1  0  0  0  0
 13 40  1  0  0  0  0
 13 41  1  0  0  0  0
 14 42  1  0  0  0  0
 14 43  1  0  0  0  0
 15 44  1  0  0  0  0
 15 45  1  0  0  0  0
 15 46  1  0  0  0  0
 16 17  2  0  0  0  0
 16 19  1  0  0  0  0
 17 18  1  0  0  0  0
 17 47  1  0  0  0  0
 18 21  1  0  0  0  0
 18 22  2  0  0  0  0
 19 23  2  0  0  0  0
 19 48  1  0  0  0  0
 20 21  1  0  0  0  0
 20 24  1  0  0  0  0
 20 49  1  0  0  0  0
 20 50  1  0  0  0  0
 22 23  1  0  0  0  0
 22 51  1  0  0  0  0
 23 52  1  0  0  0  0
 24 25  1  0  0  0  0
 24 53  1  0  0  0  0
M  CHG  1   4  -1
M  END
> <PUBCHEM_COMPOUND_ID_TYPE>
0

> <PUBCHEM_TOTAL_CHARGE>
-1

> <PUBCHEM_SUBSTANCE_ID>
170485118

> <PUBCHEM_SUBSTANCE_VERSION>
1

> <PUBCHEM_EXT_DATASOURCE_NAME>
Shanghai Institute of Organic Chemistry

> <PUBCHEM_EXT_DATASOURCE_REGID>
4h3c

> <PUBCHEM_SUBSTANCE_COMMENT>
PDB code 4h3c, binding affinity data from PDBbind-CN database: IC50=1.9uM

> <PUBCHEM_SUBSTANCE_SYNONYM>
4h3c

> <PUBCHEM_XREF_EXT_ID>
4h3c

> <PUBCHEM_EXT_DATASOURCE_URL>
http://www.sioc-ccbg.ac.cn/

> <PUBCHEM_EXT_SUBSTANCE_URL>
http://www.pdbbind-cn.org/quickpdb.asp?quickpdb=4h3c

> <PUBCHEM_CID_ASSOCIATIONS>
72200983  1
70679367  2

> <PUBCHEM_CONFORMER_ID>
0A29657E00010001

> <PUBCHEM_COORDINATE_TYPE>
2
3
4

$$$$
170485116
  -OEChem-11262106393D

 48 48  0     1  0  0  0  0  0999 V2000
   43.2650   26.4130   59.7140 O   0  0  0  0  0  0  0  0  0  0  0  0
   44.2150   22.8520   67.4010 O   0  0  0  0  0  0  0  0  0  0  0  0
   43.3130   22.3050   64.5460 O   0  0  0  0  0  0  0  0  0  0  0  0
   45.2250   26.2840   67.1370 O   0  5  0  0  0  0  0  0  0  0  0  0
   45.2280   25.0200   68.8780 O   0  0  0  0  0  0  0  0  0  0  0  0
   43.8200   30.2060   60.0300 C   0  0  0  0  0  0  0  0  0  0  0  0
   44.2170   31.6480   60.3110 C   0  0  0  0  0  0  0  0  0  0  0  0
   44.4280   29.6870   58.7250 C   0  0  0  0  0  0  0  0  0  0  0  0
   43.2950   32.6410   59.6370 C   0  0  0  0  0  0  0  0  0  0  0  0
   43.9970   28.2520   58.4850 C   0  0  0  0  0  0  0  0  0  0  0  0
   44.0910   33.8000   59.0560 C   0  0  0  0  0  0  0  0  0  0  0  0
   44.1650   27.4570   59.7580 C   0  0  0  0  0  0  0  0  0  0  0  0
   45.2430   34.1560   59.9870 C   0  0  0  0  0  0  0  0  0  0  0  0
   43.3600   25.6750   60.8020 C   0  0  0  0  0  0  0  0  0  0  0  0
   43.5490   24.1150   63.0820 C   0  0  0  0  0  0  0  0  0  0  0  0
   42.4200   24.7080   61.0670 C   0  0  0  0  0  0  0  0  0  0  0  0
   44.3990   25.8930   61.6530 C   0  0  0  0  0  0  0  0  0  0  0  0
   44.2130   24.4140   65.3650 C   0  0  0  0  0  0  0  0  0  0  0  0
   42.4950   23.9230   62.2070 C   0  0  0  0  0  0  0  0  0  0  0  0
   44.4650   25.1180   62.7980 C   0  0  0  0  0  0  0  0  0  0  0  0
   43.6950   23.4430   64.2970 C   0  0  0  0  0  0  0  0  0  0  0  0
   44.4470   24.0700   66.8360 C   0  0  3  0  0  0  0  0  0  0  0  0
   45.0050   25.1920   67.6750 C   0  0  0  0  0  0  0  0  0  0  0  0
   44.1881   29.5860   60.8474 H   0  0  0  0  0  0  0  0  0  0  0  0
   42.7345   30.1628   59.9408 H   0  0  0  0  0  0  0  0  0  0  0  0
   45.2231   31.8032   59.9214 H   0  0  0  0  0  0  0  0  0  0  0  0
   44.1593   31.8104   61.3873 H   0  0  0  0  0  0  0  0  0  0  0  0
   44.0837   30.3076   57.8977 H   0  0  0  0  0  0  0  0  0  0  0  0
   45.5150   29.7276   58.7952 H   0  0  0  0  0  0  0  0  0  0  0  0
   42.5929   33.0290   60.3750 H   0  0  0  0  0  0  0  0  0  0  0  0
   42.7627   32.1378   58.8298 H   0  0  0  0  0  0  0  0  0  0  0  0
   42.9508   28.2328   58.1798 H   0  0  0  0  0  0  0  0  0  0  0  0
   44.6124   27.8142   57.6990 H   0  0  0  0  0  0  0  0  0  0  0  0
   43.4375   34.6653   58.9455 H   0  0  0  0  0  0  0  0  0  0  0  0
   44.4905   33.5103   58.0841 H   0  0  0  0  0  0  0  0  0  0  0  0
   45.1842   27.0795   59.8410 H   0  0  0  0  0  0  0  0  0  0  0  0
   43.9784   28.0858   60.6286 H   0  0  0  0  0  0  0  0  0  0  0  0
   44.8461   34.4439   60.9605 H   0  0  0  0  0  0  0  0  0  0  0  0
   45.8968   33.2914   60.1010 H   0  0  0  0  0  0  0  0  0  0  0  0
   45.8075   34.9866   59.5633 H   0  0  0  0  0  0  0  0  0  0  0  0
   41.5989   24.5553   60.3666 H   0  0  0  0  0  0  0  0  0  0  0  0
   45.1528   26.6512   61.4406 H   0  0  0  0  0  0  0  0  0  0  0  0
   45.2239   24.6221   65.0146 H   0  0  0  0  0  0  0  0  0  0  0  0
   43.4034   25.1413   65.4256 H   0  0  0  0  0  0  0  0  0  0  0  0
   41.7363   23.1673   62.4105 H   0  0  0  0  0  0  0  0  0  0  0  0
   45.2715   25.3036   63.5074 H   0  0  0  0  0  0  0  0  0  0  0  0
   43.8746   23.1486   66.7286 H   0  0  0  0  0  0  0  0  0  0  0  0
   43.8629   22.2545   66.7373 H   0  0  0  0  0  0  0  0  0  0  0  0
  1 12  1  0  0  0  0
  1 14  1  0  0  0  0
  2 22  1  0  0  0  0
  2 48  1  0  0  0  0
  3 21  2  0  0  0  0
  4 23  1  0  0  0  0
  5 23  2  0  0  0  0
  6  7  1  0  0  0  0
  6  8  1  0  0  0  0
  6 24  1  0  0  0  0
  6 25  1  0  0  0  0
  7  9  1  0  0  0  0
  7 26  1  0  0  0  0
  7 27  1  0  0  0  0
  8 10  1  0  0  0  0
  8 28  1  0  0  0  0
  8 29  1  0  0  0  0
  9 11  1  0  0  0  0
  9 30  1  0  0  0  0
  9 31  1  0  0  0  0
 10 12  1  0  0  0  0
 10 32  1  0  0  0  0
 10 33  1  0  0  0  0
 11 13  1  0  0  0  0
 11 34  1  0  0  0  0
 11 35  1  0  0  0  0
 12 36  1  0  0  0  0
 12 37  1  0  0  0  0
 13 38  1  0  0  0  0
 13 39  1  0  0  0  0
 13 40  1  0  0  0  0
 14 16  2  0  0  0  0
 14 17  1  0  0  0  0
 15 19  2  0  0  0  0
 15 20  1  0  0  0  0
 15 21  1  0  0  0  0
 16 19  1  0  0  0  0
 16 41  1  0  0  0  0
 17 20  2  0  0  0  0
 17 42  1  0  0  0  0
 18 21  1  0  0  0  0
 18 22  1  0  0  0  0
 18 43  1  0  0  0  0
 18 44  1  0  0  0  0
 19 45  1  0  0  0  0
 20 46  1  0  0  0  0
 22 23  1  0  0  0  0
 22 47  1  0  0  0  0
M  CHG  1   4  -1
M  END
> <PUBCHEM_COMPOUND_ID_TYPE>
0

> <PUBCHEM_TOTAL_CHARGE>
-1

> <PUBCHEM_SUBSTANCE_ID>
170485116

> <PUBCHEM_SUBSTANCE_VERSION>
1

> <PUBCHEM_EXT_DATASOURCE_NAME>
Shanghai Institute of Organic Chemistry

> <PUBCHEM_EXT_DATASOURCE_REGID>
4h3a

> <PUBCHEM_SUBSTANCE_COMMENT>
PDB code 4h3a, binding affinity data from PDBbind-CN database: IC50=0.51uM

> <PUBCHEM_SUBSTANCE_SYNONYM>
4h3a

> <PUBCHEM_XREF_EXT_ID>
4h3a

> <PUBCHEM_EXT_DATASOURCE_URL>
http://www.sioc-ccbg.ac.cn/

> <PUBCHEM_EXT_SUBSTANCE_URL>
http://www.pdbbind-cn.org/quickpdb.asp?quickpdb=4h3a

> <PUBCHEM_CID_ASSOCIATIONS>
72200982  1
70679366  2

> <PUBCHEM_CONFORMER_ID>
0A29657C00010001

> <PUBCHEM_COORDINATE_TYPE>
2
3
4

$$$$
170485114
  -OEChem-11262106393D

 54 55  0     0  0  0  0  0  0999 V2000
   43.7400   21.4610   62.9880 Br  0  0  0  0  0  0  0  0  0  0  0  0
   45.4000   26.4670   63.7260 P   0  0  0  0  0  0  0  0  0  0  0  0
   43.9320   31.7510   60.1060 O   0  0  0  0  0  0  0  0  0  0  0  0
   43.8990   26.9990   60.6680 O   0  0  0  0  0  0  0  0  0  0  0  0
   44.7130   27.9760   63.8040 O   0  5  0  0  0  0  0  0  0  0  0  0
   44.8920   25.9040   65.0990 O   0  5  0  0  0  0  0  0  0  0  0  0
   46.8720   26.4800   63.7980 O   0  0  0  0  0  0  0  0  0  0  0  0
   44.8940   36.0060   59.8980 C   0  0  0  0  0  0  0  0  0  0  0  0
   45.6260   36.8770   60.9180 C   0  0  0  0  0  0  0  0  0  0  0  0
   45.0490   34.5060   60.1640 C   0  0  0  0  0  0  0  0  0  0  0  0
   44.8440   38.1630   61.0150 C   0  0  0  0  0  0  0  0  0  0  0  0
   44.5950   33.7400   58.9380 C   0  0  0  0  0  0  0  0  0  0  0  0
   45.6000   39.4350   60.6860 C   0  0  0  0  0  0  0  0  0  0  0  0
   43.4740   32.7870   59.2770 C   0  0  0  0  0  0  0  0  0  0  0  0
   45.5610   40.3470   61.9030 C   0  0  0  0  0  0  0  0  0  0  0  0
   43.8450   30.7220   59.2830 C   0  0  0  0  0  0  0  0  0  0  0  0
   43.6210   28.3980   58.8860 C   0  0  0  0  0  0  0  0  0  0  0  0
   43.7050   29.4380   59.7670 C   0  0  0  0  0  0  0  0  0  0  0  0
   43.9150   30.9760   57.9270 C   0  0  0  0  0  0  0  0  0  0  0  0
   43.4720   27.1230   59.3320 C   0  0  0  0  0  0  0  0  0  0  0  0
   43.6830   28.6360   57.5310 C   0  0  0  0  0  0  0  0  0  0  0  0
   43.8420   29.9110   57.0380 C   0  0  0  0  0  0  0  0  0  0  0  0
   43.8470   25.7300   61.1390 C   0  0  0  0  0  0  0  0  0  0  0  0
   44.4630   25.4140   62.3870 C   0  0  0  0  0  0  0  0  0  0  0  0
   43.1590   24.7450   60.4630 C   0  0  0  0  0  0  0  0  0  0  0  0
   44.3390   24.1310   62.8120 C   0  0  0  0  0  0  0  0  0  0  0  0
   43.0730   23.4490   60.9360 C   0  0  0  0  0  0  0  0  0  0  0  0
   43.6790   23.1550   62.1260 C   0  0  0  0  0  0  0  0  0  0  0  0
   43.8323   36.2447   59.9612 H   0  0  0  0  0  0  0  0  0  0  0  0
   45.3232   36.2137   58.9178 H   0  0  0  0  0  0  0  0  0  0  0  0
   46.6536   37.0655   60.6070 H   0  0  0  0  0  0  0  0  0  0  0  0
   45.6858   36.3805   61.8865 H   0  0  0  0  0  0  0  0  0  0  0  0
   46.0930   34.2756   60.3765 H   0  0  0  0  0  0  0  0  0  0  0  0
   44.4419   34.2197   61.0228 H   0  0  0  0  0  0  0  0  0  0  0  0
   44.5365   38.2535   62.0568 H   0  0  0  0  0  0  0  0  0  0  0  0
   44.0428   38.0873   60.2799 H   0  0  0  0  0  0  0  0  0  0  0  0
   44.2350   34.4520   58.1953 H   0  0  0  0  0  0  0  0  0  0  0  0
   45.4376   33.1650   58.5541 H   0  0  0  0  0  0  0  0  0  0  0  0
   45.1386   39.9324   59.8329 H   0  0  0  0  0  0  0  0  0  0  0  0
   46.6330   39.1988   60.4305 H   0  0  0  0  0  0  0  0  0  0  0  0
   42.6927   33.3368   59.8017 H   0  0  0  0  0  0  0  0  0  0  0  0
   43.0904   32.3537   58.3533 H   0  0  0  0  0  0  0  0  0  0  0  0
   44.5248   40.5814   62.1467 H   0  0  0  0  0  0  0  0  0  0  0  0
   46.0293   39.8429   62.7484 H   0  0  0  0  0  0  0  0  0  0  0  0
   46.1011   41.2678   61.6828 H   0  0  0  0  0  0  0  0  0  0  0  0
   43.6619   29.2555   60.8407 H   0  0  0  0  0  0  0  0  0  0  0  0
   42.4166   26.8559   59.2773 H   0  0  0  0  0  0  0  0  0  0  0  0
   44.0773   26.4634   58.7102 H   0  0  0  0  0  0  0  0  0  0  0  0
   44.0258   31.9964   57.5602 H   0  0  0  0  0  0  0  0  0  0  0  0
   43.6047   27.7995   56.8365 H   0  0  0  0  0  0  0  0  0  0  0  0
   43.9098   30.0830   55.9638 H   0  0  0  0  0  0  0  0  0  0  0  0
   42.6662   24.9966   59.5239 H   0  0  0  0  0  0  0  0  0  0  0  0
   44.7971   23.8634   63.7642 H   0  0  0  0  0  0  0  0  0  0  0  0
   42.5370   22.6827   60.3760 H   0  0  0  0  0  0  0  0  0  0  0  0
  1 28  1  0  0  0  0
  2  5  1  0  0  0  0
  2  6  1  0  0  0  0
  2  7  2  0  0  0  0
  2 24  1  0  0  0  0
  3 14  1  0  0  0  0
  3 16  1  0  0  0  0
  4 20  1  0  0  0  0
  4 23  1  0  0  0  0
  8  9  1  0  0  0  0
  8 10  1  0  0  0  0
  8 29  1  0  0  0  0
  8 30  1  0  0  0  0
  9 11  1  0  0  0  0
  9 31  1  0  0  0  0
  9 32  1  0  0  0  0
 10 12  1  0  0  0  0
 10 33  1  0  0  0  0
 10 34  1  0  0  0  0
 11 13  1  0  0  0  0
 11 35  1  0  0  0  0
 11 36  1  0  0  0  0
 12 14  1  0  0  0  0
 12 37  1  0  0  0  0
 12 38  1  0  0  0  0
 13 15  1  0  0  0  0
 13 39  1  0  0  0  0
 13 40  1  0  0  0  0
 14 41  1  0  0  0  0
 14 42  1  0  0  0  0
 15 43  1  0  0  0  0
 15 44  1  0  0  0  0
 15 45  1  0  0  0  0
 16 18  2  0  0  0  0
 16 19  1  0  0  0  0
 17 18  1  0  0  0  0
 17 20  1  0  0  0  0
 17 21  2  0  0  0  0
 18 46  1  0  0  0  0
 19 22  2  0  0  0  0
 19 49  1  0  0  0  0
 20 47  1  0  0  0  0
 20 48  1  0  0  0  0
 21 22  1  0  0  0  0
 21 50  1  0  0  0  0
 22 51  1  0  0  0  0
 23 24  2  0  0  0  0
 23 25  1  0  0  0  0
 24 26  1  0  0  0  0
 25 27  2  0  0  0  0
 25 52  1  0  0  0  0
 26 28  2  0  0  0  0
 26 53  1  0  0  0  0
 27 28  1  0  0  0  0
 27 54  1  0  0  0  0
M  CHG  2   5  -1   6  -1
M  END
> <PUBCHEM_COMPOUND_ID_TYPE>
0

> <PUBCHEM_TOTAL_CHARGE>
-2

> <PUBCHEM_SUBSTANCE_ID>
170485114

> <PUBCHEM_SUBSTANCE_VERSION>
1

> <PUBCHEM_EXT_DATASOURCE_NAME>
Shanghai Institute of Organic Chemistry

> <PUBCHEM_EXT_DATASOURCE_REGID>
4h38

> <PUBCHEM_SUBSTANCE_COMMENT>
PDB code 4h38, binding affinity data from PDBbind-CN database: IC50=0.92uM

> <PUBCHEM_SUBSTANCE_SYNONYM>
4h38

> <PUBCHEM_XREF_EXT_ID>
4h38

> <PUBCHEM_EXT_DATASOURCE_URL>
http://www.sioc-ccbg.ac.cn/

> <PUBCHEM_EXT_SUBSTANCE_URL>
http://www.pdbbind-cn.org/quickpdb.asp?quickpdb=4h38

> <PUBCHEM_CID_ASSOCIATIONS>
72200981  1
70679365  2

> <PUBCHEM_CONFORMER_ID>
0A29657A00010001

> <PUBCHEM_COORDINATE_TYPE>
2
3
4

$$$$
170485016
  -OEChem-11262106393D

 72 73  0     1  0  0  0  0  0999 V2000
    2.6810   29.7770   35.6370 O   0  0  0  0  0  0  0  0  0  0  0  0
    4.7420   28.1720   34.7600 O   0  0  0  0  0  0  0  0  0  0  0  0
    1.8510   39.6300   37.9320 O   0  0  0  0  0  0  0  0  0  0  0  0
    4.2070   42.0300   39.1410 O   0  0  0  0  0  0  0  0  0  0  0  0
    4.7580   41.9190   36.5890 O   0  0  0  0  0  0  0  0  0  0  0  0
    4.0850   40.9080   37.2210 N   0  0  0  0  0  0  0  0  0  0  0  0
    0.1870   34.0650   38.9090 C   0  0  0  0  0  0  0  0  0  0  0  0
   -1.4280   33.8680   38.7150 C   0  0  0  0  0  0  0  0  0  0  0  0
    0.4930   33.9080   40.5250 C   0  0  0  0  0  0  0  0  0  0  0  0
    0.8700   32.8560   38.0660 C   0  0  0  0  0  0  0  0  0  0  0  0
    0.6530   35.5850   38.6300 C   0  0  0  0  0  0  0  0  0  0  0  0
    4.8400   29.2270   32.5080 C   0  0  0  0  0  0  0  0  0  0  0  0
    3.9850   28.9220   33.7700 C   0  0  2  0  0  0  0  0  0  0  0  0
    1.1790   31.5010   38.6730 C   0  0  0  0  0  0  0  0  0  0  0  0
    1.9680   34.0350   41.1440 C   0  0  0  0  0  0  0  0  0  0  0  0
   -2.1200   33.9640   37.2840 C   0  0  0  0  0  0  0  0  0  0  0  0
    1.2140   33.0510   36.6450 C   0  0  0  0  0  0  0  0  0  0  0  0
   -0.3160   36.7080   38.8060 C   0  0  0  0  0  0  0  0  0  0  0  0
    2.0210   35.9590   38.2110 C   0  0  0  0  0  0  0  0  0  0  0  0
    1.7830   30.4460   37.9040 C   0  0  0  0  0  0  0  0  0  0  0  0
    3.4810   30.1570   34.5010 C   0  0  0  0  0  0  0  0  0  0  0  0
    2.1090   30.7450   36.4170 C   0  0  0  0  0  0  0  0  0  0  0  0
    4.0600   30.0400   31.4540 C   0  0  0  0  0  0  0  0  0  0  0  0
    6.1250   30.0260   32.8060 C   0  0  0  0  0  0  0  0  0  0  0  0
    5.1980   27.8560   31.9190 C   0  0  0  0  0  0  0  0  0  0  0  0
    1.7940   32.0730   35.8590 C   0  0  0  0  0  0  0  0  0  0  0  0
    0.0520   38.0780   38.5780 C   0  0  0  0  0  0  0  0  0  0  0  0
    2.4200   37.3040   37.9780 C   0  0  0  0  0  0  0  0  0  0  0  0
    1.4790   38.3660   38.1490 C   0  0  0  0  0  0  0  0  0  0  0  0
    2.0930   29.0790   38.5240 C   0  0  0  0  0  0  0  0  0  0  0  0
   -1.0180   39.1640   38.7830 C   0  0  0  0  0  0  0  0  0  0  0  0
    2.5720   40.2850   38.9640 C   0  0  0  0  0  0  0  0  0  0  0  0
    3.6980   41.1550   38.4510 C   0  0  0  0  0  0  0  0  0  0  0  0
   -1.9098   34.6321   39.3427 H   0  0  0  0  0  0  0  0  0  0  0  0
   -1.6663   32.8681   39.1066 H   0  0  0  0  0  0  0  0  0  0  0  0
    0.1288   32.9095   40.8084 H   0  0  0  0  0  0  0  0  0  0  0  0
   -0.1147   34.6759   41.0261 H   0  0  0  0  0  0  0  0  0  0  0  0
    3.1191   28.3256   33.4466 H   0  0  0  0  0  0  0  0  0  0  0  0
    0.9381   31.3226   39.7147 H   0  0  0  0  0  0  0  0  0  0  0  0
    1.9216   33.8943   42.2340 H   0  0  0  0  0  0  0  0  0  0  0  0
    2.3750   35.0321   40.9201 H   0  0  0  0  0  0  0  0  0  0  0  0
    2.6185   33.2657   40.7024 H   0  0  0  0  0  0  0  0  0  0  0  0
   -3.2027   33.8005   37.3886 H   0  0  0  0  0  0  0  0  0  0  0  0
   -1.6959   33.1969   36.6194 H   0  0  0  0  0  0  0  0  0  0  0  0
   -1.9395   34.9609   36.8555 H   0  0  0  0  0  0  0  0  0  0  0  0
    1.0005   34.0128   36.1928 H   0  0  0  0  0  0  0  0  0  0  0  0
   -1.3299   36.4820   39.1158 H   0  0  0  0  0  0  0  0  0  0  0  0
    2.7535   35.1716   38.0752 H   0  0  0  0  0  0  0  0  0  0  0  0
    4.3409   30.7503   34.8455 H   0  0  0  0  0  0  0  0  0  0  0  0
    2.8705   30.7610   33.8136 H   0  0  0  0  0  0  0  0  0  0  0  0
    4.7066   30.2287   30.5844 H   0  0  0  0  0  0  0  0  0  0  0  0
    3.7439   30.9988   31.8907 H   0  0  0  0  0  0  0  0  0  0  0  0
    3.1734   29.4722   31.1353 H   0  0  0  0  0  0  0  0  0  0  0  0
    6.7244   29.4898   33.5564 H   0  0  0  0  0  0  0  0  0  0  0  0
    5.8572   31.0202   33.1930 H   0  0  0  0  0  0  0  0  0  0  0  0
    6.7100   30.1378   31.8812 H   0  0  0  0  0  0  0  0  0  0  0  0
    4.2755   27.2945   31.7102 H   0  0  0  0  0  0  0  0  0  0  0  0
    5.8126   27.2965   32.6396 H   0  0  0  0  0  0  0  0  0  0  0  0
    5.7625   27.9942   30.9851 H   0  0  0  0  0  0  0  0  0  0  0  0
    2.0199   32.2848   34.8202 H   0  0  0  0  0  0  0  0  0  0  0  0
    3.4363   37.5234   37.6712 H   0  0  0  0  0  0  0  0  0  0  0  0
    1.7858   29.0773   39.5802 H   0  0  0  0  0  0  0  0  0  0  0  0
    3.1731   28.8819   38.4560 H   0  0  0  0  0  0  0  0  0  0  0  0
    1.5426   28.2967   37.9809 H   0  0  0  0  0  0  0  0  0  0  0  0
    4.1722   27.9405   35.4840 H   0  0  0  0  0  0  0  0  0  0  0  0
   -0.5832   40.1518   38.5706 H   0  0  0  0  0  0  0  0  0  0  0  0
   -1.3741   39.1362   39.8234 H   0  0  0  0  0  0  0  0  0  0  0  0
   -1.8618   38.9807   38.1016 H   0  0  0  0  0  0  0  0  0  0  0  0
    2.9979   39.5209   39.6310 H   0  0  0  0  0  0  0  0  0  0  0  0
    1.8728   40.9177   39.5304 H   0  0  0  0  0  0  0  0  0  0  0  0
    3.8993   40.0337   36.7726 H   0  0  0  0  0  0  0  0  0  0  0  0
    5.5459   42.1270   37.0772 H   0  0  0  0  0  0  0  0  0  0  0  0
  1 21  1  0  0  0  0
  1 22  1  0  0  0  0
  2 13  1  0  0  0  0
  2 65  1  0  0  0  0
  3 29  1  0  0  0  0
  3 32  1  0  0  0  0
  4 33  2  0  0  0  0
  5  6  1  0  0  0  0
  5 72  1  0  0  0  0
  6 33  1  0  0  0  0
  6 71  1  0  0  0  0
  7  8  1  0  0  0  0
  7  9  1  0  0  0  0
  7 10  1  0  0  0  0
  7 11  1  0  0  0  0
  8 16  1  0  0  0  0
  8 34  1  0  0  0  0
  8 35  1  0  0  0  0
  9 15  1  0  0  0  0
  9 36  1  0  0  0  0
  9 37  1  0  0  0  0
 10 14  1  0  0  0  0
 10 17  2  0  0  0  0
 11 18  2  0  0  0  0
 11 19  1  0  0  0  0
 12 13  1  0  0  0  0
 12 23  1  0  0  0  0
 12 24  1  0  0  0  0
 12 25  1  0  0  0  0
 13 21  1  0  0  0  0
 13 38  1  0  0  0  0
 14 20  2  0  0  0  0
 14 39  1  0  0  0  0
 15 40  1  0  0  0  0
 15 41  1  0  0  0  0
 15 42  1  0  0  0  0
 16 43  1  0  0  0  0
 16 44  1  0  0  0  0
 16 45  1  0  0  0  0
 17 26  1  0  0  0  0
 17 46  1  0  0  0  0
 18 27  1  0  0  0  0
 18 47  1  0  0  0  0
 19 28  2  0  0  0  0
 19 48  1  0  0  0  0
 20 22  1  0  0  0  0
 20 30  1  0  0  0  0
 21 49  1  0  0  0  0
 21 50  1  0  0  0  0
 22 26  2  0  0  0  0
 23 51  1  0  0  0  0
 23 52  1  0  0  0  0
 23 53  1  0  0  0  0
 24 54  1  0  0  0  0
 24 55  1  0  0  0  0
 24 56  1  0  0  0  0
 25 57  1  0  0  0  0
 25 58  1  0  0  0  0
 25 59  1  0  0  0  0
 26 60  1  0  0  0  0
 27 29  2  0  0  0  0
 27 31  1  0  0  0  0
 28 29  1  0  0  0  0
 28 61  1  0  0  0  0
 30 62  1  0  0  0  0
 30 63  1  0  0  0  0
 30 64  1  0  0  0  0
 31 66  1  0  0  0  0
 31 67  1  0  0  0  0
 31 68  1  0  0  0  0
 32 33  1  0  0  0  0
 32 69  1  0  0  0  0
 32 70  1  0  0  0  0
M  END
> <PUBCHEM_COMPOUND_ID_TYPE>
0

> <PUBCHEM_TOTAL_CHARGE>
0

> <PUBCHEM_SUBSTANCE_ID>
170485016

> <PUBCHEM_SUBSTANCE_VERSION>
1

> <PUBCHEM_EXT_DATASOURCE_NAME>
Shanghai Institute of Organic Chemistry

> <PUBCHEM_EXT_DATASOURCE_REGID>
4fhi

> <PUBCHEM_SUBSTANCE_COMMENT>
PDB code 4fhi, binding affinity data from PDBbind-CN database: IC50=100nM

> <PUBCHEM_SUBSTANCE_SYNONYM>
4fhi

> <PUBCHEM_XREF_EXT_ID>
4fhi

> <PUBCHEM_EXT_DATASOURCE_URL>
http://www.sioc-ccbg.ac.cn/

> <PUBCHEM_EXT_SUBSTANCE_URL>
http://www.pdbbind-cn.org/quickpdb.asp?quickpdb=4fhi

> <PUBCHEM_CID_ASSOCIATIONS>
60167574  1

> <PUBCHEM_CONFORMER_ID>
0A29651800010001

> <PUBCHEM_COORDINATE_TYPE>
2
3
4

$$$$
170485034
  -OEChem-11262106393D

 70 74  0     0  0  0  0  0  0999 V2000
   17.2510   10.9690    8.7260 O   0  0  0  0  0  0  0  0  0  0  0  0
   17.7600   12.5930    7.2240 O   0  0  0  0  0  0  0  0  0  0  0  0
   23.9220   12.2560    9.5220 O   0  0  0  0  0  0  0  0  0  0  0  0
   24.6400    5.5450    3.5930 N   0  3  0  0  0  0  0  0  0  0  0  0
   22.1010    9.6300    6.9200 N   0  0  0  0  0  0  0  0  0  0  0  0
   23.9200   10.0900    8.0330 N   0  0  0  0  0  0  0  0  0  0  0  0
   22.1060   11.5800    8.2920 N   0  0  0  0  0  0  0  0  0  0  0  0
   20.7310    9.6470    6.3830 C   0  0  0  0  0  0  0  0  0  0  0  0
   19.7980    9.2080    7.5170 C   0  0  0  0  0  0  0  0  0  0  0  0
   20.2490   11.0010    5.8700 C   0  0  0  0  0  0  0  0  0  0  0  0
   17.8310   10.3520    6.3690 C   0  0  0  0  0  0  0  0  0  0  0  0
   18.3630    9.0650    7.0150 C   0  0  0  0  0  0  0  0  0  0  0  0
   18.8310   10.8690    5.3210 C   0  0  0  0  0  0  0  0  0  0  0  0
   24.0380    6.5960    2.7660 C   0  0  0  0  0  0  0  0  0  0  0  0
   24.5250    4.2770    2.8440 C   0  0  0  0  0  0  0  0  0  0  0  0
   23.9400    5.3820    4.8780 C   0  0  0  0  0  0  0  0  0  0  0  0
   24.9460    6.8330    1.5480 C   0  0  0  0  0  0  0  0  0  0  0  0
   25.4420    4.3240    1.6140 C   0  0  0  0  0  0  0  0  0  0  0  0
   25.1460    5.5440    0.7330 C   0  0  0  0  0  0  0  0  0  0  0  0
   22.9680    8.6500    6.6480 C   0  0  0  0  0  0  0  0  0  0  0  0
   24.0050    6.6560    5.7520 C   0  0  0  0  0  0  0  0  0  0  0  0
   22.6820   10.4940    7.7570 C   0  0  0  0  0  0  0  0  0  0  0  0
   22.8950    7.4980    5.8480 C   0  0  0  0  0  0  0  0  0  0  0  0
   24.1240    8.9480    7.3530 C   0  0  0  0  0  0  0  0  0  0  0  0
   17.6060   11.3970    7.4700 C   0  0  0  0  0  0  0  0  0  0  0  0
   25.1620    6.9600    6.4590 C   0  0  0  0  0  0  0  0  0  0  0  0
   25.2240    8.0980    7.2730 C   0  0  0  0  0  0  0  0  0  0  0  0
   22.7520   12.3760    9.1550 C   0  0  0  0  0  0  0  0  0  0  0  0
   16.8190   12.0180    9.6340 C   0  0  0  0  0  0  0  0  0  0  0  0
   21.8790   13.4670    9.7910 C   0  0  0  0  0  0  0  0  0  0  0  0
   22.4290   14.2660   10.7920 C   0  0  0  0  0  0  0  0  0  0  0  0
   20.5450   13.6390    9.4170 C   0  0  0  0  0  0  0  0  0  0  0  0
   21.6460   15.2380   11.3840 C   0  0  0  0  0  0  0  0  0  0  0  0
   19.7510   14.6380   10.0050 C   0  0  0  0  0  0  0  0  0  0  0  0
   20.3180   15.4340   11.0000 C   0  0  0  0  0  0  0  0  0  0  0  0
   20.6750    8.9264    5.5538 H   0  0  0  0  0  0  0  0  0  0  0  0
   20.1403    8.2397    7.9109 H   0  0  0  0  0  0  0  0  0  0  0  0
   19.8262    9.9607    8.3187 H   0  0  0  0  0  0  0  0  0  0  0  0
   20.2551   11.7278    6.6956 H   0  0  0  0  0  0  0  0  0  0  0  0
   20.9196   11.3487    5.0704 H   0  0  0  0  0  0  0  0  0  0  0  0
   16.8730   10.1399    5.8719 H   0  0  0  0  0  0  0  0  0  0  0  0
   25.6087    5.7643    3.7649 H   0  0  0  0  0  0  0  0  0  0  0  0
   18.3298    8.2571    6.2693 H   0  0  0  0  0  0  0  0  0  0  0  0
   17.7166    8.8051    7.8662 H   0  0  0  0  0  0  0  0  0  0  0  0
   18.4957   11.8571    4.9729 H   0  0  0  0  0  0  0  0  0  0  0  0
   18.8462   10.1675    4.4738 H   0  0  0  0  0  0  0  0  0  0  0  0
   23.9499    7.5239    3.3501 H   0  0  0  0  0  0  0  0  0  0  0  0
   23.0401    6.2784    2.4295 H   0  0  0  0  0  0  0  0  0  0  0  0
   23.4835    4.1360    2.5195 H   0  0  0  0  0  0  0  0  0  0  0  0
   24.8237    3.4399    3.4921 H   0  0  0  0  0  0  0  0  0  0  0  0
   22.8847    5.1449    4.6775 H   0  0  0  0  0  0  0  0  0  0  0  0
   24.4041    4.5513    5.4298 H   0  0  0  0  0  0  0  0  0  0  0  0
   25.9260    7.1904    1.8972 H   0  0  0  0  0  0  0  0  0  0  0  0
   24.4861    7.5958    0.9026 H   0  0  0  0  0  0  0  0  0  0  0  0
   26.4880    4.3726    1.9508 H   0  0  0  0  0  0  0  0  0  0  0  0
   25.2899    3.4103    1.0207 H   0  0  0  0  0  0  0  0  0  0  0  0
   25.9895    5.6919    0.0426 H   0  0  0  0  0  0  0  0  0  0  0  0
   24.2303    5.3471    0.1562 H   0  0  0  0  0  0  0  0  0  0  0  0
   21.9840    7.2642    5.3091 H   0  0  0  0  0  0  0  0  0  0  0  0
   26.0256    6.3096    6.3797 H   0  0  0  0  0  0  0  0  0  0  0  0
   26.1233    8.3159    7.8376 H   0  0  0  0  0  0  0  0  0  0  0  0
   21.1646   11.8031    8.0391 H   0  0  0  0  0  0  0  0  0  0  0  0
   16.5582   11.5762   10.6070 H   0  0  0  0  0  0  0  0  0  0  0  0
   15.9385   12.5265    9.2144 H   0  0  0  0  0  0  0  0  0  0  0  0
   17.6333   12.7453    9.7680 H   0  0  0  0  0  0  0  0  0  0  0  0
   23.4583   14.1264   11.1021 H   0  0  0  0  0  0  0  0  0  0  0  0
   20.1151   12.9917    8.6612 H   0  0  0  0  0  0  0  0  0  0  0  0
   22.0712   15.8612   12.1624 H   0  0  0  0  0  0  0  0  0  0  0  0
   18.7235   14.7863    9.6931 H   0  0  0  0  0  0  0  0  0  0  0  0
   19.7260   16.2070   11.4765 H   0  0  0  0  0  0  0  0  0  0  0  0
  1 25  1  0  0  0  0
  1 29  1  0  0  0  0
  2 25  2  0  0  0  0
  3 28  2  0  0  0  0
  4 14  1  0  0  0  0
  4 15  1  0  0  0  0
  4 16  1  0  0  0  0
  4 42  1  0  0  0  0
  5  8  1  0  0  0  0
  5 20  1  0  0  0  0
  5 22  1  0  0  0  0
  6 22  2  0  0  0  0
  6 24  1  0  0  0  0
  7 22  1  0  0  0  0
  7 28  1  0  0  0  0
  7 62  1  0  0  0  0
  8  9  1  0  0  0  0
  8 10  1  0  0  0  0
  8 36  1  0  0  0  0
  9 12  1  0  0  0  0
  9 37  1  0  0  0  0
  9 38  1  0  0  0  0
 10 13  1  0  0  0  0
 10 39  1  0  0  0  0
 10 40  1  0  0  0  0
 11 12  1  0  0  0  0
 11 13  1  0  0  0  0
 11 25  1  0  0  0  0
 11 41  1  0  0  0  0
 12 43  1  0  0  0  0
 12 44  1  0  0  0  0
 13 45  1  0  0  0  0
 13 46  1  0  0  0  0
 14 17  1  0  0  0  0
 14 47  1  0  0  0  0
 14 48  1  0  0  0  0
 15 18  1  0  0  0  0
 15 49  1  0  0  0  0
 15 50  1  0  0  0  0
 16 21  1  0  0  0  0
 16 51  1  0  0  0  0
 16 52  1  0  0  0  0
 17 19  1  0  0  0  0
 17 53  1  0  0  0  0
 17 54  1  0  0  0  0
 18 19  1  0  0  0  0
 18 55  1  0  0  0  0
 18 56  1  0  0  0  0
 19 57  1  0  0  0  0
 19 58  1  0  0  0  0
 20 23  1  0  0  0  0
 20 24  2  0  0  0  0
 21 23  2  0  0  0  0
 21 26  1  0  0  0  0
 23 59  1  0  0  0  0
 24 27  1  0  0  0  0
 26 27  2  0  0  0  0
 26 60  1  0  0  0  0
 27 61  1  0  0  0  0
 28 30  1  0  0  0  0
 29 63  1  0  0  0  0
 29 64  1  0  0  0  0
 29 65  1  0  0  0  0
 30 31  2  0  0  0  0
 30 32  1  0  0  0  0
 31 33  1  0  0  0  0
 31 66  1  0  0  0  0
 32 34  2  0  0  0  0
 32 67  1  0  0  0  0
 33 35  2  0  0  0  0
 33 68  1  0  0  0  0
 34 35  1  0  0  0  0
 34 69  1  0  0  0  0
 35 70  1  0  0  0  0
M  CHG  1   4   1
M  END
> <PUBCHEM_COMPOUND_ID_TYPE>
0

> <PUBCHEM_TOTAL_CHARGE>
1

> <PUBCHEM_SUBSTANCE_ID>
170485034

> <PUBCHEM_SUBSTANCE_VERSION>
1

> <PUBCHEM_EXT_DATASOURCE_NAME>
Shanghai Institute of Organic Chemistry

> <PUBCHEM_EXT_DATASOURCE_REGID>
4foc

> <PUBCHEM_SUBSTANCE_COMMENT>
PDB code 4foc, binding affinity data from PDBbind-CN database: IC50=3nM

> <PUBCHEM_SUBSTANCE_SYNONYM>
4foc

> <PUBCHEM_XREF_EXT_ID>
4foc

> <PUBCHEM_EXT_DATASOURCE_URL>
http://www.sioc-ccbg.ac.cn/

> <PUBCHEM_EXT_SUBSTANCE_URL>
http://www.pdbbind-cn.org/quickpdb.asp?quickpdb=4foc

> <PUBCHEM_CID_ASSOCIATIONS>
72200943  1
57345940  2

> <PUBCHEM_CONFORMER_ID>
0A29652A00010001

> <PUBCHEM_COORDINATE_TYPE>
2
3
4

$$$$
170485033
  -OEChem-11262106393D

 80 84  0     0  0  0  0  0  0999 V2000
   18.4450   14.9760    9.1370 S   0  0  0  0  0  0  0  0  0  0  0  0
   17.0430   12.2250    5.3670 O   0  0  0  0  0  0  0  0  0  0  0  0
   24.0130   11.8750    9.3630 O   0  0  0  0  0  0  0  0  0  0  0  0
   18.1200   16.3710    9.5860 O   0  0  0  0  0  0  0  0  0  0  0  0
   18.3860   14.8520    7.6490 O   0  0  0  0  0  0  0  0  0  0  0  0
   25.7370    4.1050    6.3210 N   0  3  0  0  0  0  0  0  0  0  0  0
   22.0160    9.2580    6.8670 N   0  0  0  0  0  0  0  0  0  0  0  0
   23.9100    9.6700    7.8250 N   0  0  0  0  0  0  0  0  0  0  0  0
   22.1550   11.2410    8.1850 N   0  0  0  0  0  0  0  0  0  0  0  0
   17.3770   13.9640    9.8630 N   0  0  0  0  0  0  0  0  0  0  0  0
   20.6280    9.3050    6.3950 C   0  0  0  0  0  0  0  0  0  0  0  0
   17.8760    9.9600    5.7530 C   0  0  0  0  0  0  0  0  0  0  0  0
   19.5900    9.2390    7.5220 C   0  0  0  0  0  0  0  0  0  0  0  0
   20.3670   10.5060    5.5260 C   0  0  0  0  0  0  0  0  0  0  0  0
   18.2360    8.9570    6.8650 C   0  0  0  0  0  0  0  0  0  0  0  0
   19.0370   10.2870    4.8070 C   0  0  0  0  0  0  0  0  0  0  0  0
   26.9100    3.2920    5.9120 C   0  0  0  0  0  0  0  0  0  0  0  0
   25.4560    3.9840    7.7690 C   0  0  0  0  0  0  0  0  0  0  0  0
   17.3400   11.2520    6.3860 C   0  0  0  0  0  0  0  0  0  0  0  0
   26.0960    5.5000    6.0130 C   0  0  0  0  0  0  0  0  0  0  0  0
   26.8000    1.8200    6.3560 C   0  0  0  0  0  0  0  0  0  0  0  0
   25.3070    2.5170    8.2310 C   0  0  0  0  0  0  0  0  0  0  0  0
   22.8230    8.2580    6.5420 C   0  0  0  0  0  0  0  0  0  0  0  0
   26.5430    1.6990    7.8640 C   0  0  0  0  0  0  0  0  0  0  0  0
   22.6680   10.1210    7.6460 C   0  0  0  0  0  0  0  0  0  0  0  0
   24.9240    6.4820    6.2200 C   0  0  0  0  0  0  0  0  0  0  0  0
   24.0360    8.5200    7.1590 C   0  0  0  0  0  0  0  0  0  0  0  0
   25.0980    7.6340    7.0000 C   0  0  0  0  0  0  0  0  0  0  0  0
   22.6410    7.1110    5.7660 C   0  0  0  0  0  0  0  0  0  0  0  0
   23.7010    6.2330    5.6090 C   0  0  0  0  0  0  0  0  0  0  0  0
   22.8420   12.0440    9.0060 C   0  0  0  0  0  0  0  0  0  0  0  0
   22.0280   13.1890    9.5950 C   0  0  0  0  0  0  0  0  0  0  0  0
   20.7470   13.4970    9.1200 C   0  0  0  0  0  0  0  0  0  0  0  0
   22.5730   13.9010   10.6590 C   0  0  0  0  0  0  0  0  0  0  0  0
   20.0350   14.5410    9.7140 C   0  0  0  0  0  0  0  0  0  0  0  0
   21.8560   14.9310   11.2340 C   0  0  0  0  0  0  0  0  0  0  0  0
   20.5880   15.2480   10.7710 C   0  0  0  0  0  0  0  0  0  0  0  0
   17.4530   12.5970    9.3750 C   0  0  0  0  0  0  0  0  0  0  0  0
   16.4190   11.7600   10.0690 C   0  0  0  0  0  0  0  0  0  0  0  0
   16.7440   10.9660   11.0970 C   0  0  0  0  0  0  0  0  0  0  0  0
   20.4797    8.4118    5.7703 H   0  0  0  0  0  0  0  0  0  0  0  0
   17.0741    9.5112    5.1485 H   0  0  0  0  0  0  0  0  0  0  0  0
   19.5562   10.1970    8.0615 H   0  0  0  0  0  0  0  0  0  0  0  0
   19.8450    8.4315    8.2241 H   0  0  0  0  0  0  0  0  0  0  0  0
   21.1761   10.6167    4.7891 H   0  0  0  0  0  0  0  0  0  0  0  0
   20.3107   11.4117    6.1477 H   0  0  0  0  0  0  0  0  0  0  0  0
   17.4564    9.0006    7.6398 H   0  0  0  0  0  0  0  0  0  0  0  0
   18.2634    7.9476    6.4288 H   0  0  0  0  0  0  0  0  0  0  0  0
   19.1564    9.4519    4.1011 H   0  0  0  0  0  0  0  0  0  0  0  0
   18.7863   11.2032    4.2522 H   0  0  0  0  0  0  0  0  0  0  0  0
   24.9224    3.8240    5.7981 H   0  0  0  0  0  0  0  0  0  0  0  0
   27.8141    3.7282    6.3618 H   0  0  0  0  0  0  0  0  0  0  0  0
   26.9943    3.3231    4.8157 H   0  0  0  0  0  0  0  0  0  0  0  0
   24.5208    4.5188    7.9912 H   0  0  0  0  0  0  0  0  0  0  0  0
   26.2839    4.4456    8.3272 H   0  0  0  0  0  0  0  0  0  0  0  0
   18.0982   11.6626    7.0690 H   0  0  0  0  0  0  0  0  0  0  0  0
   16.4228   11.0260    6.9495 H   0  0  0  0  0  0  0  0  0  0  0  0
   26.9263    5.8015    6.6685 H   0  0  0  0  0  0  0  0  0  0  0  0
   26.4190    5.5555    4.9630 H   0  0  0  0  0  0  0  0  0  0  0  0
   27.7398    1.3030    6.1121 H   0  0  0  0  0  0  0  0  0  0  0  0
   25.9690    1.3453    5.8137 H   0  0  0  0  0  0  0  0  0  0  0  0
   25.1727    2.4957    9.3225 H   0  0  0  0  0  0  0  0  0  0  0  0
   24.4253    2.0745    7.7443 H   0  0  0  0  0  0  0  0  0  0  0  0
   27.4139    2.0804    8.4172 H   0  0  0  0  0  0  0  0  0  0  0  0
   26.3762    0.6435    8.1251 H   0  0  0  0  0  0  0  0  0  0  0  0
   26.0516    7.8332    7.4754 H   0  0  0  0  0  0  0  0  0  0  0  0
   21.6857    6.9111    5.2942 H   0  0  0  0  0  0  0  0  0  0  0  0
   23.5751    5.3428    5.0034 H   0  0  0  0  0  0  0  0  0  0  0  0
   21.2118   11.4864    7.9609 H   0  0  0  0  0  0  0  0  0  0  0  0
   16.7129   13.0174    5.7740 H   0  0  0  0  0  0  0  0  0  0  0  0
   20.3140   12.9325    8.3021 H   0  0  0  0  0  0  0  0  0  0  0  0
   23.5576   13.6477   11.0352 H   0  0  0  0  0  0  0  0  0  0  0  0
   22.2870   15.4957   12.0528 H   0  0  0  0  0  0  0  0  0  0  0  0
   20.0275   16.0506   11.2366 H   0  0  0  0  0  0  0  0  0  0  0  0
   16.7364   14.2589   10.5720 H   0  0  0  0  0  0  0  0  0  0  0  0
   17.2680   12.5840    8.2908 H   0  0  0  0  0  0  0  0  0  0  0  0
   18.4536   12.1892    9.5812 H   0  0  0  0  0  0  0  0  0  0  0  0
   15.3848   11.7990    9.7302 H   0  0  0  0  0  0  0  0  0  0  0  0
   15.9772   10.3670   11.5860 H   0  0  0  0  0  0  0  0  0  0  0  0
   17.7752   10.9192   11.4441 H   0  0  0  0  0  0  0  0  0  0  0  0
  1  4  2  0  0  0  0
  1  5  2  0  0  0  0
  1 10  1  0  0  0  0
  1 35  1  0  0  0  0
  2 19  1  0  0  0  0
  2 70  1  0  0  0  0
  3 31  2  0  0  0  0
  6 17  1  0  0  0  0
  6 18  1  0  0  0  0
  6 20  1  0  0  0  0
  6 51  1  0  0  0  0
  7 11  1  0  0  0  0
  7 23  1  0  0  0  0
  7 25  1  0  0  0  0
  8 25  2  0  0  0  0
  8 27  1  0  0  0  0
  9 25  1  0  0  0  0
  9 31  1  0  0  0  0
  9 69  1  0  0  0  0
 10 38  1  0  0  0  0
 10 75  1  0  0  0  0
 11 13  1  0  0  0  0
 11 14  1  0  0  0  0
 11 41  1  0  0  0  0
 12 15  1  0  0  0  0
 12 16  1  0  0  0  0
 12 19  1  0  0  0  0
 12 42  1  0  0  0  0
 13 15  1  0  0  0  0
 13 43  1  0  0  0  0
 13 44  1  0  0  0  0
 14 16  1  0  0  0  0
 14 45  1  0  0  0  0
 14 46  1  0  0  0  0
 15 47  1  0  0  0  0
 15 48  1  0  0  0  0
 16 49  1  0  0  0  0
 16 50  1  0  0  0  0
 17 21  1  0  0  0  0
 17 52  1  0  0  0  0
 17 53  1  0  0  0  0
 18 22  1  0  0  0  0
 18 54  1  0  0  0  0
 18 55  1  0  0  0  0
 19 56  1  0  0  0  0
 19 57  1  0  0  0  0
 20 26  1  0  0  0  0
 20 58  1  0  0  0  0
 20 59  1  0  0  0  0
 21 24  1  0  0  0  0
 21 60  1  0  0  0  0
 21 61  1  0  0  0  0
 22 24  1  0  0  0  0
 22 62  1  0  0  0  0
 22 63  1  0  0  0  0
 23 27  2  0  0  0  0
 23 29  1  0  0  0  0
 24 64  1  0  0  0  0
 24 65  1  0  0  0  0
 26 28  2  0  0  0  0
 26 30  1  0  0  0  0
 27 28  1  0  0  0  0
 28 66  1  0  0  0  0
 29 30  2  0  0  0  0
 29 67  1  0  0  0  0
 30 68  1  0  0  0  0
 31 32  1  0  0  0  0
 32 33  2  0  0  0  0
 32 34  1  0  0  0  0
 33 35  1  0  0  0  0
 33 71  1  0  0  0  0
 34 36  2  0  0  0  0
 34 72  1  0  0  0  0
 35 37  2  0  0  0  0
 36 37  1  0  0  0  0
 36 73  1  0  0  0  0
 37 74  1  0  0  0  0
 38 39  1  0  0  0  0
 38 76  1  0  0  0  0
 38 77  1  0  0  0  0
 39 40  2  0  0  0  0
 39 78  1  0  0  0  0
 40 79  1  0  0  0  0
 40 80  1  0  0  0  0
M  CHG  1   6   1
M  END
> <PUBCHEM_COMPOUND_ID_TYPE>
0

> <PUBCHEM_TOTAL_CHARGE>
1

> <PUBCHEM_SUBSTANCE_ID>
170485033

> <PUBCHEM_SUBSTANCE_VERSION>
1

> <PUBCHEM_EXT_DATASOURCE_NAME>
Shanghai Institute of Organic Chemistry

> <PUBCHEM_EXT_DATASOURCE_REGID>
4fob

> <PUBCHEM_SUBSTANCE_COMMENT>
PDB code 4fob, binding affinity data from PDBbind-CN database: IC50=5nM

> <PUBCHEM_SUBSTANCE_SYNONYM>
4fob

> <PUBCHEM_XREF_EXT_ID>
4fob

> <PUBCHEM_EXT_DATASOURCE_URL>
http://www.sioc-ccbg.ac.cn/

> <PUBCHEM_EXT_SUBSTANCE_URL>
http://www.pdbbind-cn.org/quickpdb.asp?quickpdb=4fob

> <PUBCHEM_CID_ASSOCIATIONS>
72200942  1
57345939  2

> <PUBCHEM_CONFORMER_ID>
0A29652900010001

> <PUBCHEM_COORDINATE_TYPE>
2
3
4

$$$$
170485026
  -OEChem-11262106393D

 67 68  0     1  0  0  0  0  0999 V2000
   19.2910   -3.0940   11.4870 O   0  0  0  0  0  0  0  0  0  0  0  0
   22.1720   -1.9800   13.2320 O   0  0  0  0  0  0  0  0  0  0  0  0
   22.1150   -1.3490   10.7740 O   0  0  0  0  0  0  0  0  0  0  0  0
   23.8480   -2.9740    9.6060 O   0  0  0  0  0  0  0  0  0  0  0  0
   20.6950   -2.6640   20.7470 O   0  0  0  0  0  0  0  0  0  0  0  0
   19.3590   -4.4830   13.9850 O   0  0  0  0  0  0  0  0  0  0  0  0
   19.1770   -2.3790   14.9100 N   0  0  0  0  0  0  0  0  0  0  0  0
   21.5150   -2.9290   12.4910 C   0  0  2  0  0  0  0  0  0  0  0  0
   21.9500   -2.7520   11.0430 C   0  0  2  0  0  0  0  0  0  0  0  0
   20.0190   -2.6730   12.6700 C   0  0  2  0  0  0  0  0  0  0  0  0
   23.2850   -3.4780   10.8660 C   0  0  1  0  0  0  0  0  0  0  0  0
   19.1680   -2.8690   18.7490 C   0  0  2  0  0  0  0  0  0  0  0  0
   23.4360   -7.2610   11.7690 C   0  0  0  0  0  0  0  0  0  0  0  0
   19.4750   -2.4030   17.2750 C   0  0  0  0  0  0  0  0  0  0  0  0
   18.6980   -3.0320   16.1460 C   0  0  0  0  0  0  0  0  0  0  0  0
   23.0550   -4.9620   10.6620 C   0  0  0  0  0  0  0  0  0  0  0  0
   19.5230   -3.2890   13.9690 C   0  0  0  0  0  0  0  0  0  0  0  0
   23.5290   -5.7570   11.6530 C   0  0  0  0  0  0  0  0  0  0  0  0
   17.7230   -3.2010   19.1310 C   0  0  0  0  0  0  0  0  0  0  0  0
   19.9560   -2.0870   19.8530 C   0  0  0  0  0  0  0  0  0  0  0  0
   22.7930   -7.4720   13.1170 C   0  0  0  0  0  0  0  0  0  0  0  0
   22.6820   -7.8660   10.6300 C   0  0  0  0  0  0  0  0  0  0  0  0
   24.8860   -7.7440   11.8020 C   0  0  0  0  0  0  0  0  0  0  0  0
   16.5390   -2.7530   18.4870 C   0  0  0  0  0  0  0  0  0  0  0  0
   17.5220   -4.0360   20.2900 C   0  0  0  0  0  0  0  0  0  0  0  0
   19.9530   -0.6720   20.0570 C   0  0  0  0  0  0  0  0  0  0  0  0
   17.9790   -2.5390   11.4070 C   0  0  0  0  0  0  0  0  0  0  0  0
   20.7850   -0.3450   21.1920 C   0  0  0  0  0  0  0  0  0  0  0  0
   15.2520   -3.1340   18.9620 C   0  0  0  0  0  0  0  0  0  0  0  0
   16.2450   -4.4120   20.7800 C   0  0  0  0  0  0  0  0  0  0  0  0
   21.2560   -1.6400   21.6020 C   0  0  0  0  0  0  0  0  0  0  0  0
   15.0920   -3.9570   20.1070 C   0  0  0  0  0  0  0  0  0  0  0  0
   21.7675   -3.9422   12.8370 H   0  0  0  0  0  0  0  0  0  0  0  0
   21.1962   -3.1764   10.3635 H   0  0  0  0  0  0  0  0  0  0  0  0
   19.8767   -1.5860   12.7604 H   0  0  0  0  0  0  0  0  0  0  0  0
   23.9538   -3.2946   11.7199 H   0  0  0  0  0  0  0  0  0  0  0  0
   19.6410   -3.8618   18.7729 H   0  0  0  0  0  0  0  0  0  0  0  0
   19.2910   -1.3194   17.2319 H   0  0  0  0  0  0  0  0  0  0  0  0
   20.5403   -2.6019   17.0866 H   0  0  0  0  0  0  0  0  0  0  0  0
   18.8903   -4.1143   16.1059 H   0  0  0  0  0  0  0  0  0  0  0  0
   17.6204   -2.8557   16.2787 H   0  0  0  0  0  0  0  0  0  0  0  0
   22.5469   -5.3602    9.7849 H   0  0  0  0  0  0  0  0  0  0  0  0
   24.0412   -5.2476   12.4679 H   0  0  0  0  0  0  0  0  0  0  0  0
   19.2380   -1.3888   14.7843 H   0  0  0  0  0  0  0  0  0  0  0  0
   22.6775   -8.5499   13.3034 H   0  0  0  0  0  0  0  0  0  0  0  0
   21.8046   -6.9895   13.1314 H   0  0  0  0  0  0  0  0  0  0  0  0
   23.4280   -7.0306   13.8993 H   0  0  0  0  0  0  0  0  0  0  0  0
   23.2166   -7.6669    9.6895 H   0  0  0  0  0  0  0  0  0  0  0  0
   21.6758   -7.4242   10.5804 H   0  0  0  0  0  0  0  0  0  0  0  0
   22.5985   -8.9523   10.7813 H   0  0  0  0  0  0  0  0  0  0  0  0
   25.4081   -7.2789   12.6512 H   0  0  0  0  0  0  0  0  0  0  0  0
   25.3877   -7.4625   10.8644 H   0  0  0  0  0  0  0  0  0  0  0  0
   24.9056   -8.8381   11.9142 H   0  0  0  0  0  0  0  0  0  0  0  0
   21.9375   -1.1151   12.9164 H   0  0  0  0  0  0  0  0  0  0  0  0
   22.7769   -0.9921   11.3545 H   0  0  0  0  0  0  0  0  0  0  0  0
   23.9711   -2.0341    9.6690 H   0  0  0  0  0  0  0  0  0  0  0  0
   16.6166   -2.1094   17.6182 H   0  0  0  0  0  0  0  0  0  0  0  0
   18.3977   -4.3971   20.8171 H   0  0  0  0  0  0  0  0  0  0  0  0
   19.4073    0.0488   19.4500 H   0  0  0  0  0  0  0  0  0  0  0  0
   17.4848   -2.8967   10.4917 H   0  0  0  0  0  0  0  0  0  0  0  0
   18.0460   -1.4413   11.3825 H   0  0  0  0  0  0  0  0  0  0  0  0
   17.3946   -2.8512   12.2851 H   0  0  0  0  0  0  0  0  0  0  0  0
   20.9999    0.6307   21.6252 H   0  0  0  0  0  0  0  0  0  0  0  0
   14.3709   -2.7862   18.4350 H   0  0  0  0  0  0  0  0  0  0  0  0
   16.1566   -5.0400   21.6591 H   0  0  0  0  0  0  0  0  0  0  0  0
   21.9349   -1.8234   22.4335 H   0  0  0  0  0  0  0  0  0  0  0  0
   14.1033   -4.2305   20.4574 H   0  0  0  0  0  0  0  0  0  0  0  0
  1 10  1  0  0  0  0
  1 27  1  0  0  0  0
  2  8  1  0  0  0  0
  2 54  1  0  0  0  0
  3  9  1  0  0  0  0
  3 55  1  0  0  0  0
  4 11  1  0  0  0  0
  4 56  1  0  0  0  0
  5 20  1  0  0  0  0
  5 31  1  0  0  0  0
  6 17  2  0  0  0  0
  7 15  1  0  0  0  0
  7 17  1  0  0  0  0
  7 44  1  0  0  0  0
  8  9  1  0  0  0  0
  8 10  1  0  0  0  0
  8 33  1  0  0  0  0
  9 11  1  0  0  0  0
  9 34  1  0  0  0  0
 10 17  1  0  0  0  0
 10 35  1  0  0  0  0
 11 16  1  0  0  0  0
 11 36  1  0  0  0  0
 12 14  1  0  0  0  0
 12 19  1  0  0  0  0
 12 20  1  0  0  0  0
 12 37  1  0  0  0  0
 13 18  1  0  0  0  0
 13 21  1  0  0  0  0
 13 22  1  0  0  0  0
 13 23  1  0  0  0  0
 14 15  1  0  0  0  0
 14 38  1  0  0  0  0
 14 39  1  0  0  0  0
 15 40  1  0  0  0  0
 15 41  1  0  0  0  0
 16 18  2  0  0  0  0
 16 42  1  0  0  0  0
 18 43  1  0  0  0  0
 19 24  2  0  0  0  0
 19 25  1  0  0  0  0
 20 26  2  0  0  0  0
 21 45  1  0  0  0  0
 21 46  1  0  0  0  0
 21 47  1  0  0  0  0
 22 48  1  0  0  0  0
 22 49  1  0  0  0  0
 22 50  1  0  0  0  0
 23 51  1  0  0  0  0
 23 52  1  0  0  0  0
 23 53  1  0  0  0  0
 24 29  1  0  0  0  0
 24 57  1  0  0  0  0
 25 30  2  0  0  0  0
 25 58  1  0  0  0  0
 26 28  1  0  0  0  0
 26 59  1  0  0  0  0
 27 60  1  0  0  0  0
 27 61  1  0  0  0  0
 27 62  1  0  0  0  0
 28 31  2  0  0  0  0
 28 63  1  0  0  0  0
 29 32  2  0  0  0  0
 29 64  1  0  0  0  0
 30 32  1  0  0  0  0
 30 65  1  0  0  0  0
 31 66  1  0  0  0  0
 32 67  1  0  0  0  0
M  END
> <PUBCHEM_COMPOUND_ID_TYPE>
0

> <PUBCHEM_TOTAL_CHARGE>
0

> <PUBCHEM_SUBSTANCE_ID>
170485026

> <PUBCHEM_SUBSTANCE_VERSION>
1

> <PUBCHEM_EXT_DATASOURCE_NAME>
Shanghai Institute of Organic Chemistry

> <PUBCHEM_EXT_DATASOURCE_REGID>
4fll

> <PUBCHEM_SUBSTANCE_COMMENT>
PDB code 4fll, binding affinity data from PDBbind-CN database: IC50=5.14uM

> <PUBCHEM_SUBSTANCE_SYNONYM>
4fll

> <PUBCHEM_XREF_EXT_ID>
4fll

> <PUBCHEM_EXT_DATASOURCE_URL>
http://www.sioc-ccbg.ac.cn/

> <PUBCHEM_EXT_SUBSTANCE_URL>
http://www.pdbbind-cn.org/quickpdb.asp?quickpdb=4fll

> <PUBCHEM_CID_ASSOCIATIONS>
60167577  1

> <PUBCHEM_CONFORMER_ID>
0A29652200010001

> <PUBCHEM_COORDINATE_TYPE>
2
3
4

$$$$
170485025
  -OEChem-11262106393D

 60 61  0     1  0  0  0  0  0999 V2000
   23.7840   -2.8610    9.5630 O   0  0  0  0  0  0  0  0  0  0  0  0
   22.0970   -1.2120   10.8050 O   0  0  0  0  0  0  0  0  0  0  0  0
   22.2010   -1.9350   13.1320 O   0  0  0  0  0  0  0  0  0  0  0  0
   19.2310   -3.0540   11.5120 O   0  0  0  0  0  0  0  0  0  0  0  0
   19.4150   -4.4060   13.9960 O   0  0  0  0  0  0  0  0  0  0  0  0
   19.3390   -2.3730   14.8580 N   0  0  0  0  0  0  0  0  0  0  0  0
   23.4220   -7.1650   11.8200 C   0  0  0  0  0  0  0  0  0  0  0  0
   18.9820   -2.9640   16.2000 C   0  0  0  0  0  0  0  0  0  0  0  0
   23.5130   -5.6400   11.6880 C   0  0  0  0  0  0  0  0  0  0  0  0
   22.9490   -4.9300   10.6670 C   0  0  0  0  0  0  0  0  0  0  0  0
   23.2020   -3.4100   10.7960 C   0  0  2  0  0  0  0  0  0  0  0  0
   21.9010   -2.6330   11.0660 C   0  0  1  0  0  0  0  0  0  0  0  0
   19.2210   -2.0240   17.3980 C   0  0  0  0  0  0  0  0  0  0  0  0
   19.6810   -4.2830   16.4680 C   0  0  0  0  0  0  0  0  0  0  0  0
   21.3960   -2.8230   12.5030 C   0  0  2  0  0  0  0  0  0  0  0  0
   19.9200   -2.5230   12.6280 C   0  0  2  0  0  0  0  0  0  0  0  0
   19.8450   -2.9940   18.4350 C   0  0  0  0  0  0  0  0  0  0  0  0
   20.0840   -4.2720   17.9240 C   0  0  0  0  0  0  0  0  0  0  0  0
   22.6650   -7.7820   10.6130 C   0  0  0  0  0  0  0  0  0  0  0  0
   24.8260   -7.6630   11.7970 C   0  0  0  0  0  0  0  0  0  0  0  0
   22.6600   -7.3860   13.1490 C   0  0  0  0  0  0  0  0  0  0  0  0
   19.5400   -3.2260   13.8780 C   0  0  0  0  0  0  0  0  0  0  0  0
   20.1980   -2.7620   19.7900 C   0  0  0  0  0  0  0  0  0  0  0  0
   20.7130   -5.3300   18.6660 C   0  0  0  0  0  0  0  0  0  0  0  0
   20.7850   -3.7840   20.5710 C   0  0  0  0  0  0  0  0  0  0  0  0
   21.0470   -5.0490   20.0160 C   0  0  0  0  0  0  0  0  0  0  0  0
   17.9100   -2.5280   11.3690 C   0  0  0  0  0  0  0  0  0  0  0  0
   17.9018   -3.1690   16.1653 H   0  0  0  0  0  0  0  0  0  0  0  0
   24.5874   -5.4062   11.6568 H   0  0  0  0  0  0  0  0  0  0  0  0
   23.0759   -5.2334   12.6119 H   0  0  0  0  0  0  0  0  0  0  0  0
   21.8637   -5.1089   10.6696 H   0  0  0  0  0  0  0  0  0  0  0  0
   23.3760   -5.2797    9.7155 H   0  0  0  0  0  0  0  0  0  0  0  0
   23.8994   -3.2457   11.6306 H   0  0  0  0  0  0  0  0  0  0  0  0
   21.1302   -3.0121   10.3789 H   0  0  0  0  0  0  0  0  0  0  0  0
   18.2774   -1.5952   17.7664 H   0  0  0  0  0  0  0  0  0  0  0  0
   19.9163   -1.2120   17.1388 H   0  0  0  0  0  0  0  0  0  0  0  0
   20.5713   -4.3771   15.8289 H   0  0  0  0  0  0  0  0  0  0  0  0
   18.9972   -5.1216   16.2702 H   0  0  0  0  0  0  0  0  0  0  0  0
   21.5777   -3.8461   12.8638 H   0  0  0  0  0  0  0  0  0  0  0  0
   19.7319   -1.4420   12.7057 H   0  0  0  0  0  0  0  0  0  0  0  0
   19.4184   -1.3855   14.7215 H   0  0  0  0  0  0  0  0  0  0  0  0
   22.6137   -8.8744   10.7319 H   0  0  0  0  0  0  0  0  0  0  0  0
   23.1988   -7.5392    9.6824 H   0  0  0  0  0  0  0  0  0  0  0  0
   21.6461   -7.3697   10.5696 H   0  0  0  0  0  0  0  0  0  0  0  0
   25.3803   -7.2365   12.6460 H   0  0  0  0  0  0  0  0  0  0  0  0
   25.3073   -7.3598   10.8555 H   0  0  0  0  0  0  0  0  0  0  0  0
   24.8271   -8.7604   11.8726 H   0  0  0  0  0  0  0  0  0  0  0  0
   21.6401   -6.9841   13.0581 H   0  0  0  0  0  0  0  0  0  0  0  0
   23.1867   -6.8683   13.9642 H   0  0  0  0  0  0  0  0  0  0  0  0
   22.6115   -8.4626   13.3692 H   0  0  0  0  0  0  0  0  0  0  0  0
   20.0153   -1.7890   20.2316 H   0  0  0  0  0  0  0  0  0  0  0  0
   20.9217   -6.2942   18.2168 H   0  0  0  0  0  0  0  0  0  0  0  0
   23.9285   -1.9282    9.6704 H   0  0  0  0  0  0  0  0  0  0  0  0
   22.7817   -0.8784   11.3728 H   0  0  0  0  0  0  0  0  0  0  0  0
   22.0528   -1.0670   12.7754 H   0  0  0  0  0  0  0  0  0  0  0  0
   21.0355   -3.5904   21.6077 H   0  0  0  0  0  0  0  0  0  0  0  0
   21.5088   -5.8172   20.6256 H   0  0  0  0  0  0  0  0  0  0  0  0
   17.4296   -2.9780   10.4877 H   0  0  0  0  0  0  0  0  0  0  0  0
   17.9617   -1.4367   11.2412 H   0  0  0  0  0  0  0  0  0  0  0  0
   17.3218   -2.7645   12.2680 H   0  0  0  0  0  0  0  0  0  0  0  0
  1 11  1  0  0  0  0
  1 53  1  0  0  0  0
  2 12  1  0  0  0  0
  2 54  1  0  0  0  0
  3 15  1  0  0  0  0
  3 55  1  0  0  0  0
  4 16  1  0  0  0  0
  4 27  1  0  0  0  0
  5 22  2  0  0  0  0
  6  8  1  0  0  0  0
  6 22  1  0  0  0  0
  6 41  1  0  0  0  0
  7  9  1  0  0  0  0
  7 19  1  0  0  0  0
  7 20  1  0  0  0  0
  7 21  1  0  0  0  0
  8 13  1  0  0  0  0
  8 14  1  0  0  0  0
  8 28  1  0  0  0  0
  9 10  1  0  0  0  0
  9 29  1  0  0  0  0
  9 30  1  0  0  0  0
 10 11  1  0  0  0  0
 10 31  1  0  0  0  0
 10 32  1  0  0  0  0
 11 12  1  0  0  0  0
 11 33  1  0  0  0  0
 12 15  1  0  0  0  0
 12 34  1  0  0  0  0
 13 17  1  0  0  0  0
 13 35  1  0  0  0  0
 13 36  1  0  0  0  0
 14 18  1  0  0  0  0
 14 37  1  0  0  0  0
 14 38  1  0  0  0  0
 15 16  1  0  0  0  0
 15 39  1  0  0  0  0
 16 22  1  0  0  0  0
 16 40  1  0  0  0  0
 17 18  1  0  0  0  0
 17 23  2  0  0  0  0
 18 24  2  0  0  0  0
 19 42  1  0  0  0  0
 19 43  1  0  0  0  0
 19 44  1  0  0  0  0
 20 45  1  0  0  0  0
 20 46  1  0  0  0  0
 20 47  1  0  0  0  0
 21 48  1  0  0  0  0
 21 49  1  0  0  0  0
 21 50  1  0  0  0  0
 23 25  1  0  0  0  0
 23 51  1  0  0  0  0
 24 26  1  0  0  0  0
 24 52  1  0  0  0  0
 25 26  2  0  0  0  0
 25 56  1  0  0  0  0
 26 57  1  0  0  0  0
 27 58  1  0  0  0  0
 27 59  1  0  0  0  0
 27 60  1  0  0  0  0
M  END
> <PUBCHEM_COMPOUND_ID_TYPE>
0

> <PUBCHEM_TOTAL_CHARGE>
0

> <PUBCHEM_SUBSTANCE_ID>
170485025

> <PUBCHEM_SUBSTANCE_VERSION>
1

> <PUBCHEM_EXT_DATASOURCE_NAME>
Shanghai Institute of Organic Chemistry

> <PUBCHEM_EXT_DATASOURCE_REGID>
4flk

> <PUBCHEM_SUBSTANCE_COMMENT>
PDB code 4flk, binding affinity data from PDBbind-CN database: IC50=5.58uM

> <PUBCHEM_SUBSTANCE_SYNONYM>
4flk

> <PUBCHEM_XREF_EXT_ID>
4flk

> <PUBCHEM_EXT_DATASOURCE_URL>
http://www.sioc-ccbg.ac.cn/

> <PUBCHEM_EXT_SUBSTANCE_URL>
http://www.pdbbind-cn.org/quickpdb.asp?quickpdb=4flk

> <PUBCHEM_CID_ASSOCIATIONS>
60167576  1

> <PUBCHEM_CONFORMER_ID>
0A29652100010001

> <PUBCHEM_COORDINATE_TYPE>
2
3
4

$$$$
170485024
  -OEChem-11262106393D

 68 69  0     1  0  0  0  0  0999 V2000
   20.9290   -3.3250   20.4410 O   0  0  0  0  0  0  0  0  0  0  0  0
   19.3990   -3.0180   11.4410 O   0  0  0  0  0  0  0  0  0  0  0  0
   22.3010   -1.9040   13.2660 O   0  0  0  0  0  0  0  0  0  0  0  0
   19.3710   -4.4770   13.8670 O   0  0  0  0  0  0  0  0  0  0  0  0
   22.1600   -1.2610   10.7770 O   0  0  0  0  0  0  0  0  0  0  0  0
   24.0250   -2.8390    9.7130 O   0  0  0  0  0  0  0  0  0  0  0  0
   20.4650   -4.9930   19.0360 N   0  0  0  0  0  0  0  0  0  0  0  0
   19.4740   -2.4700   14.9510 N   0  0  0  0  0  0  0  0  0  0  0  0
   21.6800   -5.4510   21.1990 C   0  0  0  0  0  0  0  0  0  0  0  0
   23.1070   -5.8990   20.8720 C   0  0  0  0  0  0  0  0  0  0  0  0
   22.8830   -4.7670   21.8770 C   0  0  0  0  0  0  0  0  0  0  0  0
   20.0460   -3.6950   17.0420 C   0  0  1  0  0  0  0  0  0  0  0  0
   21.0370   -4.5180   20.1790 C   0  0  0  0  0  0  0  0  0  0  0  0
   19.4290   -4.1580   18.3630 C   0  0  0  0  0  0  0  0  0  0  0  0
   20.5770   -4.9630   16.3020 C   0  0  0  0  0  0  0  0  0  0  0  0
   20.7580   -6.3070   18.4030 C   0  0  0  0  0  0  0  0  0  0  0  0
   21.4610   -5.9860   17.0830 C   0  0  0  0  0  0  0  0  0  0  0  0
   18.9480   -3.0440   16.2190 C   0  0  0  0  0  0  0  0  0  0  0  0
   19.5700   -3.2460   13.8480 C   0  0  0  0  0  0  0  0  0  0  0  0
   19.9910   -2.5100   12.6180 C   0  0  1  0  0  0  0  0  0  0  0  0
   21.4930   -2.8320   12.5010 C   0  0  1  0  0  0  0  0  0  0  0  0
   22.0400   -2.6760   11.0750 C   0  0  2  0  0  0  0  0  0  0  0  0
   23.3890   -3.3960   10.8610 C   0  0  1  0  0  0  0  0  0  0  0  0
   23.6340   -7.1610   11.7490 C   0  0  0  0  0  0  0  0  0  0  0  0
   23.1570   -4.9100   10.7460 C   0  0  0  0  0  0  0  0  0  0  0  0
   23.7430   -5.6660   11.6400 C   0  0  0  0  0  0  0  0  0  0  0  0
   22.7950   -7.8340   10.6370 C   0  0  0  0  0  0  0  0  0  0  0  0
   22.9910   -7.4550   13.0870 C   0  0  0  0  0  0  0  0  0  0  0  0
   25.0510   -7.6840   11.6870 C   0  0  0  0  0  0  0  0  0  0  0  0
   18.0430   -2.5000   11.3010 C   0  0  0  0  0  0  0  0  0  0  0  0
   20.9599   -6.0975   21.7219 H   0  0  0  0  0  0  0  0  0  0  0  0
   23.5386   -5.6786   19.8845 H   0  0  0  0  0  0  0  0  0  0  0  0
   23.4681   -6.8781   21.2198 H   0  0  0  0  0  0  0  0  0  0  0  0
   23.0801   -4.9332   22.9464 H   0  0  0  0  0  0  0  0  0  0  0  0
   23.1507   -3.7337   21.6111 H   0  0  0  0  0  0  0  0  0  0  0  0
   20.8649   -2.9827   17.2208 H   0  0  0  0  0  0  0  0  0  0  0  0
   19.1728   -3.2905   18.9889 H   0  0  0  0  0  0  0  0  0  0  0  0
   18.5237   -4.7533   18.1730 H   0  0  0  0  0  0  0  0  0  0  0  0
   21.1726   -4.6105   15.4471 H   0  0  0  0  0  0  0  0  0  0  0  0
   19.6978   -5.5126   15.9347 H   0  0  0  0  0  0  0  0  0  0  0  0
   19.8249   -6.8586   18.2158 H   0  0  0  0  0  0  0  0  0  0  0  0
   21.4146   -6.9064   19.0508 H   0  0  0  0  0  0  0  0  0  0  0  0
   22.4499   -5.5481   17.2836 H   0  0  0  0  0  0  0  0  0  0  0  0
   21.5803   -6.9051   16.4905 H   0  0  0  0  0  0  0  0  0  0  0  0
   18.1871   -3.8011   15.9784 H   0  0  0  0  0  0  0  0  0  0  0  0
   18.4894   -2.2384   16.8112 H   0  0  0  0  0  0  0  0  0  0  0  0
   19.7562   -1.5113   14.9147 H   0  0  0  0  0  0  0  0  0  0  0  0
   19.7961   -1.4319   12.7162 H   0  0  0  0  0  0  0  0  0  0  0  0
   21.6543   -3.8609   12.8550 H   0  0  0  0  0  0  0  0  0  0  0  0
   21.3116   -3.1192   10.3801 H   0  0  0  0  0  0  0  0  0  0  0  0
   24.0330   -3.2150   11.7342 H   0  0  0  0  0  0  0  0  0  0  0  0
   22.5352   -5.3341    9.9590 H   0  0  0  0  0  0  0  0  0  0  0  0
   24.3696   -5.1633   12.3752 H   0  0  0  0  0  0  0  0  0  0  0  0
   22.1823   -1.0258   12.9237 H   0  0  0  0  0  0  0  0  0  0  0  0
   22.8103   -0.8719   11.3499 H   0  0  0  0  0  0  0  0  0  0  0  0
   22.7735   -8.9215   10.8013 H   0  0  0  0  0  0  0  0  0  0  0  0
   23.2463   -7.6201    9.6569 H   0  0  0  0  0  0  0  0  0  0  0  0
   21.7687   -7.4391   10.6622 H   0  0  0  0  0  0  0  0  0  0  0  0
   23.5781   -6.9817   13.8878 H   0  0  0  0  0  0  0  0  0  0  0  0
   22.9609   -8.5427   13.2483 H   0  0  0  0  0  0  0  0  0  0  0  0
   21.9667   -7.0542   13.0976 H   0  0  0  0  0  0  0  0  0  0  0  0
   25.4845   -7.4525   10.7029 H   0  0  0  0  0  0  0  0  0  0  0  0
   25.0467   -8.7735   11.8386 H   0  0  0  0  0  0  0  0  0  0  0  0
   25.6529   -7.2065   12.4742 H   0  0  0  0  0  0  0  0  0  0  0  0
   17.5904   -2.9009   10.3821 H   0  0  0  0  0  0  0  0  0  0  0  0
   18.0739   -1.4018   11.2455 H   0  0  0  0  0  0  0  0  0  0  0  0
   17.4418   -2.8065   12.1697 H   0  0  0  0  0  0  0  0  0  0  0  0
   24.1425   -1.9048    9.8395 H   0  0  0  0  0  0  0  0  0  0  0  0
  1 13  2  0  0  0  0
  2 20  1  0  0  0  0
  2 30  1  0  0  0  0
  3 21  1  0  0  0  0
  3 54  1  0  0  0  0
  4 19  2  0  0  0  0
  5 22  1  0  0  0  0
  5 55  1  0  0  0  0
  6 23  1  0  0  0  0
  6 68  1  0  0  0  0
  7 13  1  0  0  0  0
  7 14  1  0  0  0  0
  7 16  1  0  0  0  0
  8 18  1  0  0  0  0
  8 19  1  0  0  0  0
  8 47  1  0  0  0  0
  9 10  1  0  0  0  0
  9 11  1  0  0  0  0
  9 13  1  0  0  0  0
  9 31  1  0  0  0  0
 10 11  1  0  0  0  0
 10 32  1  0  0  0  0
 10 33  1  0  0  0  0
 11 34  1  0  0  0  0
 11 35  1  0  0  0  0
 12 14  1  0  0  0  0
 12 15  1  0  0  0  0
 12 18  1  0  0  0  0
 12 36  1  0  0  0  0
 14 37  1  0  0  0  0
 14 38  1  0  0  0  0
 15 17  1  0  0  0  0
 15 39  1  0  0  0  0
 15 40  1  0  0  0  0
 16 17  1  0  0  0  0
 16 41  1  0  0  0  0
 16 42  1  0  0  0  0
 17 43  1  0  0  0  0
 17 44  1  0  0  0  0
 18 45  1  0  0  0  0
 18 46  1  0  0  0  0
 19 20  1  0  0  0  0
 20 21  1  0  0  0  0
 20 48  1  0  0  0  0
 21 22  1  0  0  0  0
 21 49  1  0  0  0  0
 22 23  1  0  0  0  0
 22 50  1  0  0  0  0
 23 25  1  0  0  0  0
 23 51  1  0  0  0  0
 24 26  1  0  0  0  0
 24 27  1  0  0  0  0
 24 28  1  0  0  0  0
 24 29  1  0  0  0  0
 25 26  2  0  0  0  0
 25 52  1  0  0  0  0
 26 53  1  0  0  0  0
 27 56  1  0  0  0  0
 27 57  1  0  0  0  0
 27 58  1  0  0  0  0
 28 59  1  0  0  0  0
 28 60  1  0  0  0  0
 28 61  1  0  0  0  0
 29 62  1  0  0  0  0
 29 63  1  0  0  0  0
 29 64  1  0  0  0  0
 30 65  1  0  0  0  0
 30 66  1  0  0  0  0
 30 67  1  0  0  0  0
M  END
> <PUBCHEM_COMPOUND_ID_TYPE>
0

> <PUBCHEM_TOTAL_CHARGE>
0

> <PUBCHEM_SUBSTANCE_ID>
170485024

> <PUBCHEM_SUBSTANCE_VERSION>
1

> <PUBCHEM_EXT_DATASOURCE_NAME>
Shanghai Institute of Organic Chemistry

> <PUBCHEM_EXT_DATASOURCE_REGID>
4flj

> <PUBCHEM_SUBSTANCE_COMMENT>
PDB code 4flj, binding affinity data from PDBbind-CN database: IC50=7.45uM

> <PUBCHEM_SUBSTANCE_SYNONYM>
4flj

> <PUBCHEM_XREF_EXT_ID>
4flj

> <PUBCHEM_EXT_DATASOURCE_URL>
http://www.sioc-ccbg.ac.cn/

> <PUBCHEM_EXT_SUBSTANCE_URL>
http://www.pdbbind-cn.org/quickpdb.asp?quickpdb=4flj

> <PUBCHEM_CID_ASSOCIATIONS>
51035428  1

> <PUBCHEM_CONFORMER_ID>
0A29652000010001

> <PUBCHEM_COORDINATE_TYPE>
2
3
4

$$$$
170485023
  -OEChem-11262106393D

 50 49  0     1  0  0  0  0  0999 V2000
   23.8250   -2.9170    9.5530 O   0  0  0  0  0  0  0  0  0  0  0  0
   22.1320   -1.3580   10.7340 O   0  0  0  0  0  0  0  0  0  0  0  0
   22.3470   -1.8780   13.2130 O   0  0  0  0  0  0  0  0  0  0  0  0
   19.3190   -3.1970   11.7680 O   0  0  0  0  0  0  0  0  0  0  0  0
   19.7890   -4.3070   14.4190 O   0  0  0  0  0  0  0  0  0  0  0  0
   17.0240   -3.0060   15.9090 O   0  0  0  0  0  0  0  0  0  0  0  0
   19.5560   -2.1360   15.0020 N   0  0  0  0  0  0  0  0  0  0  0  0
   17.8540   -3.6420   17.9290 N   0  0  0  0  0  0  0  0  0  0  0  0
   23.4920   -7.1810   11.6900 C   0  0  0  0  0  0  0  0  0  0  0  0
   23.5670   -5.6810   11.5800 C   0  0  0  0  0  0  0  0  0  0  0  0
   23.0360   -4.9320   10.6070 C   0  0  0  0  0  0  0  0  0  0  0  0
   23.3280   -3.4820   10.8170 C   0  0  2  0  0  0  0  0  0  0  0  0
   22.0130   -2.7500   11.1120 C   0  0  1  0  0  0  0  0  0  0  0  0
   21.6050   -2.8650   12.5840 C   0  0  2  0  0  0  0  0  0  0  0  0
   22.6640   -7.8080   10.6140 C   0  0  0  0  0  0  0  0  0  0  0  0
   22.8030   -7.4160   13.0820 C   0  0  0  0  0  0  0  0  0  0  0  0
   24.9000   -7.7410   11.7480 C   0  0  0  0  0  0  0  0  0  0  0  0
   20.1250   -2.6420   12.8360 C   0  0  2  0  0  0  0  0  0  0  0  0
   19.8350   -3.1600   14.2300 C   0  0  0  0  0  0  0  0  0  0  0  0
   18.0320   -2.5920   11.6560 C   0  0  0  0  0  0  0  0  0  0  0  0
   19.3380   -2.6110   16.3540 C   0  0  0  0  0  0  0  0  0  0  0  0
   17.9660   -3.0950   16.6600 C   0  0  0  0  0  0  0  0  0  0  0  0
   24.6418   -5.4473   11.5681 H   0  0  0  0  0  0  0  0  0  0  0  0
   23.1196   -5.3020   12.5107 H   0  0  0  0  0  0  0  0  0  0  0  0
   21.9461   -5.0799   10.5954 H   0  0  0  0  0  0  0  0  0  0  0  0
   23.4590   -5.2464    9.6415 H   0  0  0  0  0  0  0  0  0  0  0  0
   24.0544   -3.3440   11.6315 H   0  0  0  0  0  0  0  0  0  0  0  0
   21.2214   -3.2106   10.5027 H   0  0  0  0  0  0  0  0  0  0  0  0
   21.8791   -3.8585   12.9684 H   0  0  0  0  0  0  0  0  0  0  0  0
   22.6500   -8.8993   10.7511 H   0  0  0  0  0  0  0  0  0  0  0  0
   23.0963   -7.5675    9.6315 H   0  0  0  0  0  0  0  0  0  0  0  0
   21.6367   -7.4185   10.6679 H   0  0  0  0  0  0  0  0  0  0  0  0
   23.4110   -6.9553   13.8745 H   0  0  0  0  0  0  0  0  0  0  0  0
   22.7140   -8.4962   13.2694 H   0  0  0  0  0  0  0  0  0  0  0  0
   21.8015   -6.9610   13.0769 H   0  0  0  0  0  0  0  0  0  0  0  0
   25.3971   -7.5842   10.7793 H   0  0  0  0  0  0  0  0  0  0  0  0
   24.8575   -8.8179   11.9683 H   0  0  0  0  0  0  0  0  0  0  0  0
   25.4668   -7.2271   12.5384 H   0  0  0  0  0  0  0  0  0  0  0  0
   19.9338   -1.5588   12.8416 H   0  0  0  0  0  0  0  0  0  0  0  0
   24.0148   -1.9939    9.6730 H   0  0  0  0  0  0  0  0  0  0  0  0
   22.3241   -1.2985    9.8056 H   0  0  0  0  0  0  0  0  0  0  0  0
   22.1239   -1.0317   12.8435 H   0  0  0  0  0  0  0  0  0  0  0  0
   19.5025   -1.1825   14.7055 H   0  0  0  0  0  0  0  0  0  0  0  0
   17.4776   -3.0600   10.8292 H   0  0  0  0  0  0  0  0  0  0  0  0
   18.1485   -1.5165   11.4569 H   0  0  0  0  0  0  0  0  0  0  0  0
   17.4775   -2.7331   12.5955 H   0  0  0  0  0  0  0  0  0  0  0  0
   19.5645   -1.7835   17.0424 H   0  0  0  0  0  0  0  0  0  0  0  0
   20.0364   -3.4411   16.5361 H   0  0  0  0  0  0  0  0  0  0  0  0
   18.6573   -3.6984   18.5219 H   0  0  0  0  0  0  0  0  0  0  0  0
   16.9699   -3.9802   18.2515 H   0  0  0  0  0  0  0  0  0  0  0  0
  1 12  1  0  0  0  0
  1 40  1  0  0  0  0
  2 13  1  0  0  0  0
  2 41  1  0  0  0  0
  3 14  1  0  0  0  0
  3 42  1  0  0  0  0
  4 18  1  0  0  0  0
  4 20  1  0  0  0  0
  5 19  2  0  0  0  0
  6 22  2  0  0  0  0
  7 19  1  0  0  0  0
  7 21  1  0  0  0  0
  7 43  1  0  0  0  0
  8 22  1  0  0  0  0
  8 49  1  0  0  0  0
  8 50  1  0  0  0  0
  9 10  1  0  0  0  0
  9 15  1  0  0  0  0
  9 16  1  0  0  0  0
  9 17  1  0  0  0  0
 10 11  1  0  0  0  0
 10 23  1  0  0  0  0
 10 24  1  0  0  0  0
 11 12  1  0  0  0  0
 11 25  1  0  0  0  0
 11 26  1  0  0  0  0
 12 13  1  0  0  0  0
 12 27  1  0  0  0  0
 13 14  1  0  0  0  0
 13 28  1  0  0  0  0
 14 18  1  0  0  0  0
 14 29  1  0  0  0  0
 15 30  1  0  0  0  0
 15 31  1  0  0  0  0
 15 32  1  0  0  0  0
 16 33  1  0  0  0  0
 16 34  1  0  0  0  0
 16 35  1  0  0  0  0
 17 36  1  0  0  0  0
 17 37  1  0  0  0  0
 17 38  1  0  0  0  0
 18 19  1  0  0  0  0
 18 39  1  0  0  0  0
 20 44  1  0  0  0  0
 20 45  1  0  0  0  0
 20 46  1  0  0  0  0
 21 22  1  0  0  0  0
 21 47  1  0  0  0  0
 21 48  1  0  0  0  0
M  END
> <PUBCHEM_COMPOUND_ID_TYPE>
0

> <PUBCHEM_TOTAL_CHARGE>
0

> <PUBCHEM_SUBSTANCE_ID>
170485023

> <PUBCHEM_SUBSTANCE_VERSION>
1

> <PUBCHEM_EXT_DATASOURCE_NAME>
Shanghai Institute of Organic Chemistry

> <PUBCHEM_EXT_DATASOURCE_REGID>
4fli

> <PUBCHEM_SUBSTANCE_COMMENT>
PDB code 4fli, binding affinity data from PDBbind-CN database: IC50=3.59uM

> <PUBCHEM_SUBSTANCE_SYNONYM>
4fli

> <PUBCHEM_XREF_EXT_ID>
4fli

> <PUBCHEM_EXT_DATASOURCE_URL>
http://www.sioc-ccbg.ac.cn/

> <PUBCHEM_EXT_SUBSTANCE_URL>
http://www.pdbbind-cn.org/quickpdb.asp?quickpdb=4fli

> <PUBCHEM_CID_ASSOCIATIONS>
60167575  1

> <PUBCHEM_CONFORMER_ID>
0A29651F00010001

> <PUBCHEM_COORDINATE_TYPE>
2
3
4

$$$$
170485035
  -OEChem-11262106393D

 87 91  0     0  0  0  0  0  0999 V2000
   19.3870   16.3740   11.3570 F   0  0  0  0  0  0  0  0  0  0  0  0
   25.5440   -0.7500    7.6370 O   0  0  0  0  0  0  0  0  0  0  0  0
   17.9350   12.3100    7.2210 O   0  0  0  0  0  0  0  0  0  0  0  0
   23.8690   12.2670    9.5720 O   0  0  0  0  0  0  0  0  0  0  0  0
   24.4330    4.1140    6.3520 N   0  3  0  0  0  0  0  0  0  0  0  0
   22.2830    9.4600    7.1760 N   0  0  0  0  0  0  0  0  0  0  0  0
   24.0540   10.1890    8.2260 N   0  0  0  0  0  0  0  0  0  0  0  0
   16.6650   10.8250    8.3620 N   0  0  0  0  0  0  0  0  0  0  0  0
   22.1000   11.5010    8.3620 N   0  0  0  0  0  0  0  0  0  0  0  0
   25.4480    1.6410    7.5540 C   0  0  0  0  0  0  0  0  0  0  0  0
   25.3250    2.9490    8.3330 C   0  0  0  0  0  0  0  0  0  0  0  0
   24.4130    1.6290    6.4330 C   0  0  0  0  0  0  0  0  0  0  0  0
   25.4840    4.1440    7.3870 C   0  0  0  0  0  0  0  0  0  0  0  0
   24.5460    2.8760    5.5510 C   0  0  0  0  0  0  0  0  0  0  0  0
   25.3060    0.4140    8.4560 C   0  0  0  0  0  0  0  0  0  0  0  0
   24.5480    5.2730    5.4500 C   0  0  0  0  0  0  0  0  0  0  0  0
   20.8910    9.3650    6.6600 C   0  0  0  0  0  0  0  0  0  0  0  0
   20.4390   10.6480    5.9780 C   0  0  0  0  0  0  0  0  0  0  0  0
   19.9360    9.1120    7.8310 C   0  0  0  0  0  0  0  0  0  0  0  0
   17.9770   10.0200    6.4760 C   0  0  0  0  0  0  0  0  0  0  0  0
   19.0060   10.5160    5.4330 C   0  0  0  0  0  0  0  0  0  0  0  0
   18.5120    8.8580    7.3200 C   0  0  0  0  0  0  0  0  0  0  0  0
   24.4800    6.6020    6.2280 C   0  0  0  0  0  0  0  0  0  0  0  0
   23.9010    0.3630    9.0590 C   0  0  0  0  0  0  0  0  0  0  0  0
   26.3400    0.4670    9.5700 C   0  0  0  0  0  0  0  0  0  0  0  0
   23.2470    8.5550    6.9690 C   0  0  0  0  0  0  0  0  0  0  0  0
   23.3000    7.3460    6.2640 C   0  0  0  0  0  0  0  0  0  0  0  0
   24.3720    9.0220    7.6370 C   0  0  0  0  0  0  0  0  0  0  0  0
   22.7810   10.4460    7.9250 C   0  0  0  0  0  0  0  0  0  0  0  0
   25.6080    7.0740    6.8950 C   0  0  0  0  0  0  0  0  0  0  0  0
   17.5280   11.1660    7.4000 C   0  0  0  0  0  0  0  0  0  0  0  0
   25.5500    8.2800    7.5920 C   0  0  0  0  0  0  0  0  0  0  0  0
   16.1270   11.8150    9.3280 C   0  0  0  0  0  0  0  0  0  0  0  0
   22.6930   12.3480    9.2130 C   0  0  0  0  0  0  0  0  0  0  0  0
   14.6190   11.9760    9.0930 C   0  0  0  0  0  0  0  0  0  0  0  0
   16.4060   11.3540   10.7510 C   0  0  0  0  0  0  0  0  0  0  0  0
   21.7920   13.4450    9.7610 C   0  0  0  0  0  0  0  0  0  0  0  0
   22.2730   14.2700   10.7710 C   0  0  0  0  0  0  0  0  0  0  0  0
   20.4870   13.5880    9.2990 C   0  0  0  0  0  0  0  0  0  0  0  0
   21.4630   15.2630   11.2980 C   0  0  0  0  0  0  0  0  0  0  0  0
   19.6770   14.5830    9.8330 C   0  0  0  0  0  0  0  0  0  0  0  0
   20.1670   15.4150   10.8300 C   0  0  0  0  0  0  0  0  0  0  0  0
   26.4492    1.6068    7.0996 H   0  0  0  0  0  0  0  0  0  0  0  0
   23.5320    4.1365    6.8034 H   0  0  0  0  0  0  0  0  0  0  0  0
   24.3364    2.9945    8.8132 H   0  0  0  0  0  0  0  0  0  0  0  0
   26.1091    2.9884    9.1034 H   0  0  0  0  0  0  0  0  0  0  0  0
   24.5634    0.7324    5.8138 H   0  0  0  0  0  0  0  0  0  0  0  0
   23.4054    1.6055    6.8736 H   0  0  0  0  0  0  0  0  0  0  0  0
   25.4011    5.0775    7.9629 H   0  0  0  0  0  0  0  0  0  0  0  0
   26.4714    4.0972    6.9045 H   0  0  0  0  0  0  0  0  0  0  0  0
   25.5265    2.8597    5.0526 H   0  0  0  0  0  0  0  0  0  0  0  0
   23.7491    2.8655    4.7929 H   0  0  0  0  0  0  0  0  0  0  0  0
   25.5096    5.2185    4.9186 H   0  0  0  0  0  0  0  0  0  0  0  0
   23.7242    5.2424    4.7217 H   0  0  0  0  0  0  0  0  0  0  0  0
   20.8330    8.5328    5.9430 H   0  0  0  0  0  0  0  0  0  0  0  0
   20.4710   11.4715    6.7065 H   0  0  0  0  0  0  0  0  0  0  0  0
   21.1208   10.8697    5.1437 H   0  0  0  0  0  0  0  0  0  0  0  0
   20.2802    8.2325    8.3948 H   0  0  0  0  0  0  0  0  0  0  0  0
   19.9319    9.9920    8.4909 H   0  0  0  0  0  0  0  0  0  0  0  0
   17.0954    9.6589    5.9261 H   0  0  0  0  0  0  0  0  0  0  0  0
   18.6821   11.5027    5.0703 H   0  0  0  0  0  0  0  0  0  0  0  0
   19.0194    9.8035    4.5950 H   0  0  0  0  0  0  0  0  0  0  0  0
   18.5153    7.9466    6.7042 H   0  0  0  0  0  0  0  0  0  0  0  0
   17.8472    8.7141    8.1845 H   0  0  0  0  0  0  0  0  0  0  0  0
   23.8112   -0.5228    9.7050 H   0  0  0  0  0  0  0  0  0  0  0  0
   23.1570    0.3043    8.2509 H   0  0  0  0  0  0  0  0  0  0  0  0
   23.7245    1.2707    9.6548 H   0  0  0  0  0  0  0  0  0  0  0  0
   27.3486    0.5036    9.1326 H   0  0  0  0  0  0  0  0  0  0  0  0
   26.2461   -0.4295   10.2005 H   0  0  0  0  0  0  0  0  0  0  0  0
   26.1733    1.3653   10.1826 H   0  0  0  0  0  0  0  0  0  0  0  0
   22.4197    6.9863    5.7436 H   0  0  0  0  0  0  0  0  0  0  0  0
   26.4191   -0.7041    7.2701 H   0  0  0  0  0  0  0  0  0  0  0  0
   26.5299    6.5043    6.8722 H   0  0  0  0  0  0  0  0  0  0  0  0
   26.4324    8.6447    8.1052 H   0  0  0  0  0  0  0  0  0  0  0  0
   16.3722    9.8715    8.4332 H   0  0  0  0  0  0  0  0  0  0  0  0
   21.1600   11.6595    8.0600 H   0  0  0  0  0  0  0  0  0  0  0  0
   16.6207   12.7844    9.1652 H   0  0  0  0  0  0  0  0  0  0  0  0
   14.2130   12.7088    9.8059 H   0  0  0  0  0  0  0  0  0  0  0  0
   14.1196   11.0069    9.2391 H   0  0  0  0  0  0  0  0  0  0  0  0
   14.4435   12.3278    8.0657 H   0  0  0  0  0  0  0  0  0  0  0  0
   17.4911   11.2459   10.8953 H   0  0  0  0  0  0  0  0  0  0  0  0
   15.9147   10.3855   10.9257 H   0  0  0  0  0  0  0  0  0  0  0  0
   16.0140   12.0973   11.4608 H   0  0  0  0  0  0  0  0  0  0  0  0
   23.2812   14.1366   11.1462 H   0  0  0  0  0  0  0  0  0  0  0  0
   20.1052   12.9282    8.5283 H   0  0  0  0  0  0  0  0  0  0  0  0
   21.8415   15.9188   12.0737 H   0  0  0  0  0  0  0  0  0  0  0  0
   18.6630   14.7092    9.4711 H   0  0  0  0  0  0  0  0  0  0  0  0
  1 42  1  0  0  0  0
  2 15  1  0  0  0  0
  2 72  1  0  0  0  0
  3 31  2  0  0  0  0
  4 34  2  0  0  0  0
  5 13  1  0  0  0  0
  5 14  1  0  0  0  0
  5 16  1  0  0  0  0
  5 44  1  0  0  0  0
  6 17  1  0  0  0  0
  6 26  1  0  0  0  0
  6 29  1  0  0  0  0
  7 28  1  0  0  0  0
  7 29  2  0  0  0  0
  8 31  1  0  0  0  0
  8 33  1  0  0  0  0
  8 75  1  0  0  0  0
  9 29  1  0  0  0  0
  9 34  1  0  0  0  0
  9 76  1  0  0  0  0
 10 11  1  0  0  0  0
 10 12  1  0  0  0  0
 10 15  1  0  0  0  0
 10 43  1  0  0  0  0
 11 13  1  0  0  0  0
 11 45  1  0  0  0  0
 11 46  1  0  0  0  0
 12 14  1  0  0  0  0
 12 47  1  0  0  0  0
 12 48  1  0  0  0  0
 13 49  1  0  0  0  0
 13 50  1  0  0  0  0
 14 51  1  0  0  0  0
 14 52  1  0  0  0  0
 15 24  1  0  0  0  0
 15 25  1  0  0  0  0
 16 23  1  0  0  0  0
 16 53  1  0  0  0  0
 16 54  1  0  0  0  0
 17 18  1  0  0  0  0
 17 19  1  0  0  0  0
 17 55  1  0  0  0  0
 18 21  1  0  0  0  0
 18 56  1  0  0  0  0
 18 57  1  0  0  0  0
 19 22  1  0  0  0  0
 19 58  1  0  0  0  0
 19 59  1  0  0  0  0
 20 21  1  0  0  0  0
 20 22  1  0  0  0  0
 20 31  1  0  0  0  0
 20 60  1  0  0  0  0
 21 61  1  0  0  0  0
 21 62  1  0  0  0  0
 22 63  1  0  0  0  0
 22 64  1  0  0  0  0
 23 27  2  0  0  0  0
 23 30  1  0  0  0  0
 24 65  1  0  0  0  0
 24 66  1  0  0  0  0
 24 67  1  0  0  0  0
 25 68  1  0  0  0  0
 25 69  1  0  0  0  0
 25 70  1  0  0  0  0
 26 27  1  0  0  0  0
 26 28  2  0  0  0  0
 27 71  1  0  0  0  0
 28 32  1  0  0  0  0
 30 32  2  0  0  0  0
 30 73  1  0  0  0  0
 32 74  1  0  0  0  0
 33 35  1  0  0  0  0
 33 36  1  0  0  0  0
 33 77  1  0  0  0  0
 34 37  1  0  0  0  0
 35 78  1  0  0  0  0
 35 79  1  0  0  0  0
 35 80  1  0  0  0  0
 36 81  1  0  0  0  0
 36 82  1  0  0  0  0
 36 83  1  0  0  0  0
 37 38  2  0  0  0  0
 37 39  1  0  0  0  0
 38 40  1  0  0  0  0
 38 84  1  0  0  0  0
 39 41  2  0  0  0  0
 39 85  1  0  0  0  0
 40 42  2  0  0  0  0
 40 86  1  0  0  0  0
 41 42  1  0  0  0  0
 41 87  1  0  0  0  0
M  CHG  1   5   1
M  END
> <PUBCHEM_COMPOUND_ID_TYPE>
0

> <PUBCHEM_TOTAL_CHARGE>
1

> <PUBCHEM_SUBSTANCE_ID>
170485035

> <PUBCHEM_SUBSTANCE_VERSION>
1

> <PUBCHEM_EXT_DATASOURCE_NAME>
Shanghai Institute of Organic Chemistry

> <PUBCHEM_EXT_DATASOURCE_REGID>
4fod

> <PUBCHEM_SUBSTANCE_COMMENT>
PDB code 4fod, binding affinity data from PDBbind-CN database: IC50=1.2nM

> <PUBCHEM_SUBSTANCE_SYNONYM>
4fod

> <PUBCHEM_XREF_EXT_ID>
4fod

> <PUBCHEM_EXT_DATASOURCE_URL>
http://www.sioc-ccbg.ac.cn/

> <PUBCHEM_EXT_SUBSTANCE_URL>
http://www.pdbbind-cn.org/quickpdb.asp?quickpdb=4fod

> <PUBCHEM_CID_ASSOCIATIONS>
72200944  1
57345941  2

> <PUBCHEM_CONFORMER_ID>
0A29652B00010001

> <PUBCHEM_COORDINATE_TYPE>
2
3
4

$$$$
170485015
  -OEChem-11262106393D

 72 73  0     1  0  0  0  0  0999 V2000
    2.2490   29.5330   35.4950 O   0  0  0  0  0  0  0  0  0  0  0  0
    4.4090   28.2680   34.7550 O   0  0  0  0  0  0  0  0  0  0  0  0
    1.8540   39.7890   37.5830 O   0  0  0  0  0  0  0  0  0  0  0  0
    3.8990   42.3960   38.9000 O   0  0  0  0  0  0  0  0  0  0  0  0
    4.9900   42.0940   36.6310 O   0  0  0  0  0  0  0  0  0  0  0  0
    4.0330   41.2050   37.0390 N   0  0  0  0  0  0  0  0  0  0  0  0
    0.3310   34.2240   38.8030 C   0  0  0  0  0  0  0  0  0  0  0  0
   -1.2950   34.0020   38.7560 C   0  0  0  0  0  0  0  0  0  0  0  0
    0.7250   34.0950   40.3900 C   0  0  0  0  0  0  0  0  0  0  0  0
    0.8590   32.9690   37.9550 C   0  0  0  0  0  0  0  0  0  0  0  0
    0.7720   35.7310   38.4550 C   0  0  0  0  0  0  0  0  0  0  0  0
    4.6560   29.5660   32.5910 C   0  0  0  0  0  0  0  0  0  0  0  0
    4.4440   29.5550   34.1310 C   0  0  1  0  0  0  0  0  0  0  0  0
    1.1940   31.6450   38.6000 C   0  0  0  0  0  0  0  0  0  0  0  0
    2.2050   34.2430   40.9270 C   0  0  0  0  0  0  0  0  0  0  0  0
   -2.1550   34.0500   37.4330 C   0  0  0  0  0  0  0  0  0  0  0  0
    1.0130   33.0830   36.5090 C   0  0  0  0  0  0  0  0  0  0  0  0
   -0.1620   36.8480   38.7340 C   0  0  0  0  0  0  0  0  0  0  0  0
    2.0770   36.1060   37.8660 C   0  0  0  0  0  0  0  0  0  0  0  0
    1.6460   30.5300   37.8420 C   0  0  0  0  0  0  0  0  0  0  0  0
    3.1260   30.1730   34.4570 C   0  0  0  0  0  0  0  0  0  0  0  0
    1.7740   30.7340   36.3080 C   0  0  0  0  0  0  0  0  0  0  0  0
    4.7700   28.1320   32.0150 C   0  0  0  0  0  0  0  0  0  0  0  0
    3.6030   30.2140   31.6080 C   0  0  0  0  0  0  0  0  0  0  0  0
    5.9990   30.1910   32.4830 C   0  0  0  0  0  0  0  0  0  0  0  0
    1.4410   32.0410   35.7270 C   0  0  0  0  0  0  0  0  0  0  0  0
    0.1520   38.2090   38.4600 C   0  0  0  0  0  0  0  0  0  0  0  0
    2.4420   37.4690   37.5710 C   0  0  0  0  0  0  0  0  0  0  0  0
    1.5220   38.5270   37.8510 C   0  0  0  0  0  0  0  0  0  0  0  0
    1.9770   29.2150   38.5190 C   0  0  0  0  0  0  0  0  0  0  0  0
   -0.9240   39.2520   38.8070 C   0  0  0  0  0  0  0  0  0  0  0  0
    2.4610   40.4630   38.7050 C   0  0  0  0  0  0  0  0  0  0  0  0
    3.5280   41.4430   38.2240 C   0  0  0  0  0  0  0  0  0  0  0  0
   -1.7203   34.7724   39.4160 H   0  0  0  0  0  0  0  0  0  0  0  0
   -1.4728   33.0075   39.1911 H   0  0  0  0  0  0  0  0  0  0  0  0
    0.3871   33.0969   40.7055 H   0  0  0  0  0  0  0  0  0  0  0  0
    0.1357   34.8635   40.9115 H   0  0  0  0  0  0  0  0  0  0  0  0
    5.2563   30.1421   34.5842 H   0  0  0  0  0  0  0  0  0  0  0  0
    1.0866   31.5416   39.6737 H   0  0  0  0  0  0  0  0  0  0  0  0
    2.2129   34.1167   42.0197 H   0  0  0  0  0  0  0  0  0  0  0  0
    2.5901   35.2409   40.6705 H   0  0  0  0  0  0  0  0  0  0  0  0
    2.8415   33.4743   40.4645 H   0  0  0  0  0  0  0  0  0  0  0  0
   -3.2126   33.8707   37.6765 H   0  0  0  0  0  0  0  0  0  0  0  0
   -1.8021   33.2739   36.7379 H   0  0  0  0  0  0  0  0  0  0  0  0
   -2.0496   35.0388   36.9628 H   0  0  0  0  0  0  0  0  0  0  0  0
    0.7799   34.0289   36.0337 H   0  0  0  0  0  0  0  0  0  0  0  0
   -1.1288   36.6176   39.1667 H   0  0  0  0  0  0  0  0  0  0  0  0
    2.7906   35.3201   37.6465 H   0  0  0  0  0  0  0  0  0  0  0  0
    3.3285   31.1993   34.7970 H   0  0  0  0  0  0  0  0  0  0  0  0
    2.5465   30.2039   33.5225 H   0  0  0  0  0  0  0  0  0  0  0  0
    4.9188   28.1849   30.9264 H   0  0  0  0  0  0  0  0  0  0  0  0
    3.8466   27.5751   32.2322 H   0  0  0  0  0  0  0  0  0  0  0  0
    5.6256   27.6180   32.4774 H   0  0  0  0  0  0  0  0  0  0  0  0
    3.4199   31.2578   31.9030 H   0  0  0  0  0  0  0  0  0  0  0  0
    2.6605   29.6488   31.6558 H   0  0  0  0  0  0  0  0  0  0  0  0
    3.9952   30.1868   30.5807 H   0  0  0  0  0  0  0  0  0  0  0  0
    6.6885   29.7023   33.1871 H   0  0  0  0  0  0  0  0  0  0  0  0
    5.9258   31.2615   32.7250 H   0  0  0  0  0  0  0  0  0  0  0  0
    6.3774   30.0720   31.4570 H   0  0  0  0  0  0  0  0  0  0  0  0
    1.5356   32.1852   34.6568 H   0  0  0  0  0  0  0  0  0  0  0  0
    3.4108   37.6911   37.1383 H   0  0  0  0  0  0  0  0  0  0  0  0
    1.8114   29.3085   39.6024 H   0  0  0  0  0  0  0  0  0  0  0  0
    3.0302   28.9600   38.3297 H   0  0  0  0  0  0  0  0  0  0  0  0
    1.3296   28.4221   38.1163 H   0  0  0  0  0  0  0  0  0  0  0  0
    4.2918   28.3745   35.6917 H   0  0  0  0  0  0  0  0  0  0  0  0
   -0.5580   40.2565   38.5480 H   0  0  0  0  0  0  0  0  0  0  0  0
   -1.1434   39.2082   39.8840 H   0  0  0  0  0  0  0  0  0  0  0  0
   -1.8401   39.0373   38.2371 H   0  0  0  0  0  0  0  0  0  0  0  0
    2.9257   39.7177   39.3673 H   0  0  0  0  0  0  0  0  0  0  0  0
    1.6866   41.0137   39.2591 H   0  0  0  0  0  0  0  0  0  0  0  0
    3.7413   40.4323   36.4753 H   0  0  0  0  0  0  0  0  0  0  0  0
    4.6166   42.9669   36.5987 H   0  0  0  0  0  0  0  0  0  0  0  0
  1 21  1  0  0  0  0
  1 22  1  0  0  0  0
  2 13  1  0  0  0  0
  2 65  1  0  0  0  0
  3 29  1  0  0  0  0
  3 32  1  0  0  0  0
  4 33  2  0  0  0  0
  5  6  1  0  0  0  0
  5 72  1  0  0  0  0
  6 33  1  0  0  0  0
  6 71  1  0  0  0  0
  7  8  1  0  0  0  0
  7  9  1  0  0  0  0
  7 10  1  0  0  0  0
  7 11  1  0  0  0  0
  8 16  1  0  0  0  0
  8 34  1  0  0  0  0
  8 35  1  0  0  0  0
  9 15  1  0  0  0  0
  9 36  1  0  0  0  0
  9 37  1  0  0  0  0
 10 14  1  0  0  0  0
 10 17  2  0  0  0  0
 11 18  2  0  0  0  0
 11 19  1  0  0  0  0
 12 13  1  0  0  0  0
 12 23  1  0  0  0  0
 12 24  1  0  0  0  0
 12 25  1  0  0  0  0
 13 21  1  0  0  0  0
 13 38  1  0  0  0  0
 14 20  2  0  0  0  0
 14 39  1  0  0  0  0
 15 40  1  0  0  0  0
 15 41  1  0  0  0  0
 15 42  1  0  0  0  0
 16 43  1  0  0  0  0
 16 44  1  0  0  0  0
 16 45  1  0  0  0  0
 17 26  1  0  0  0  0
 17 46  1  0  0  0  0
 18 27  1  0  0  0  0
 18 47  1  0  0  0  0
 19 28  2  0  0  0  0
 19 48  1  0  0  0  0
 20 22  1  0  0  0  0
 20 30  1  0  0  0  0
 21 49  1  0  0  0  0
 21 50  1  0  0  0  0
 22 26  2  0  0  0  0
 23 51  1  0  0  0  0
 23 52  1  0  0  0  0
 23 53  1  0  0  0  0
 24 54  1  0  0  0  0
 24 55  1  0  0  0  0
 24 56  1  0  0  0  0
 25 57  1  0  0  0  0
 25 58  1  0  0  0  0
 25 59  1  0  0  0  0
 26 60  1  0  0  0  0
 27 29  2  0  0  0  0
 27 31  1  0  0  0  0
 28 29  1  0  0  0  0
 28 61  1  0  0  0  0
 30 62  1  0  0  0  0
 30 63  1  0  0  0  0
 30 64  1  0  0  0  0
 31 66  1  0  0  0  0
 31 67  1  0  0  0  0
 31 68  1  0  0  0  0
 32 33  1  0  0  0  0
 32 69  1  0  0  0  0
 32 70  1  0  0  0  0
M  END
> <PUBCHEM_COMPOUND_ID_TYPE>
0

> <PUBCHEM_TOTAL_CHARGE>
0

> <PUBCHEM_SUBSTANCE_ID>
170485015

> <PUBCHEM_SUBSTANCE_VERSION>
1

> <PUBCHEM_EXT_DATASOURCE_NAME>
Shanghai Institute of Organic Chemistry

> <PUBCHEM_EXT_DATASOURCE_REGID>
4fhh

> <PUBCHEM_SUBSTANCE_COMMENT>
PDB code 4fhh, binding affinity data from PDBbind-CN database: IC50=35nM

> <PUBCHEM_SUBSTANCE_SYNONYM>
4fhh

> <PUBCHEM_XREF_EXT_ID>
4fhh

> <PUBCHEM_EXT_DATASOURCE_URL>
http://www.sioc-ccbg.ac.cn/

> <PUBCHEM_EXT_SUBSTANCE_URL>
http://www.pdbbind-cn.org/quickpdb.asp?quickpdb=4fhh

> <PUBCHEM_CID_ASSOCIATIONS>
60167573  1

> <PUBCHEM_CONFORMER_ID>
0A29651700010001

> <PUBCHEM_COORDINATE_TYPE>
2
3
4

$$$$
170485014
  -OEChem-11262106393D

 48 50  0     0  0  0  0  0  0999 V2000
   35.8210   32.8670   35.2060 Cl  0  0  0  0  0  0  0  0  0  0  0  0
   28.5280   35.8590   25.6890 O   0  0  0  0  0  0  0  0  0  0  0  0
   31.3150   37.9300   24.8780 N   0  3  0  0  0  0  0  0  0  0  0  0
   32.4120   34.9200   29.6910 N   0  0  0  0  0  0  0  0  0  0  0  0
   33.0530   31.0080   31.2360 N   0  0  0  0  0  0  0  0  0  0  0  0
   31.1970   36.4520   25.0140 C   0  0  0  0  0  0  0  0  0  0  0  0
   30.3750   38.6930   25.6870 C   0  0  0  0  0  0  0  0  0  0  0  0
   31.4210   38.4360   23.4950 C   0  0  0  0  0  0  0  0  0  0  0  0
   30.8260   35.8970   26.4040 C   0  0  0  0  0  0  0  0  0  0  0  0
   30.9470   39.3960   26.8730 C   0  0  0  0  0  0  0  0  0  0  0  0
   30.9920   39.8530   23.2100 C   0  0  0  0  0  0  0  0  0  0  0  0
   31.8140   35.6660   27.4080 C   0  0  0  0  0  0  0  0  0  0  0  0
   29.4770   35.6250   26.6860 C   0  0  0  0  0  0  0  0  0  0  0  0
   31.4130   35.1600   28.6460 C   0  0  0  0  0  0  0  0  0  0  0  0
   29.0820   35.1210   27.9460 C   0  0  0  0  0  0  0  0  0  0  0  0
   30.0470   34.8890   28.9370 C   0  0  0  0  0  0  0  0  0  0  0  0
   32.6200   33.5560   30.2110 C   0  0  0  0  0  0  0  0  0  0  0  0
   33.3960   33.3950   31.4040 C   0  0  0  0  0  0  0  0  0  0  0  0
   33.6020   32.1170   31.8980 C   0  0  0  0  0  0  0  0  0  0  0  0
   32.0730   32.4050   29.5670 C   0  0  0  0  0  0  0  0  0  0  0  0
   33.9390   34.5470   32.0610 C   0  0  0  0  0  0  0  0  0  0  0  0
   34.3510   31.9400   33.0920 C   0  0  0  0  0  0  0  0  0  0  0  0
   32.2990   31.1280   30.1170 C   0  0  0  0  0  0  0  0  0  0  0  0
   34.6940   34.3690   33.2220 C   0  0  0  0  0  0  0  0  0  0  0  0
   34.8920   33.0530   33.7470 C   0  0  0  0  0  0  0  0  0  0  0  0
   32.2146   38.1357   25.2835 H   0  0  0  0  0  0  0  0  0  0  0  0
   30.4243   36.1158   24.3070 H   0  0  0  0  0  0  0  0  0  0  0  0
   32.1667   36.0159   24.7321 H   0  0  0  0  0  0  0  0  0  0  0  0
   29.6024   37.9986   26.0487 H   0  0  0  0  0  0  0  0  0  0  0  0
   29.9120   39.4512   25.0384 H   0  0  0  0  0  0  0  0  0  0  0  0
   30.8083   37.7781   22.8612 H   0  0  0  0  0  0  0  0  0  0  0  0
   32.4769   38.3512   23.1987 H   0  0  0  0  0  0  0  0  0  0  0  0
   30.1464   39.9342   27.4015 H   0  0  0  0  0  0  0  0  0  0  0  0
   31.7128   40.1123   26.5406 H   0  0  0  0  0  0  0  0  0  0  0  0
   31.4032   38.6596   27.5509 H   0  0  0  0  0  0  0  0  0  0  0  0
   31.1334   40.0709   22.1411 H   0  0  0  0  0  0  0  0  0  0  0  0
   31.5991   40.5475   23.8092 H   0  0  0  0  0  0  0  0  0  0  0  0
   29.9305   39.9744   23.4716 H   0  0  0  0  0  0  0  0  0  0  0  0
   32.8585   35.8799   27.2125 H   0  0  0  0  0  0  0  0  0  0  0  0
   28.0368   34.9145   28.1458 H   0  0  0  0  0  0  0  0  0  0  0  0
   29.7565   34.5090   29.9098 H   0  0  0  0  0  0  0  0  0  0  0  0
   32.9684   35.7035   30.0619 H   0  0  0  0  0  0  0  0  0  0  0  0
   27.6650   35.6330   26.0155 H   0  0  0  0  0  0  0  0  0  0  0  0
   31.4878   32.5131   28.6610 H   0  0  0  0  0  0  0  0  0  0  0  0
   33.7664   35.5405   31.6631 H   0  0  0  0  0  0  0  0  0  0  0  0
   34.5034   30.9454   33.4952 H   0  0  0  0  0  0  0  0  0  0  0  0
   31.8729   30.2482   29.6485 H   0  0  0  0  0  0  0  0  0  0  0  0
   35.1289   35.2256   33.7242 H   0  0  0  0  0  0  0  0  0  0  0  0
  1 25  1  0  0  0  0
  2 13  1  0  0  0  0
  2 43  1  0  0  0  0
  3  6  1  0  0  0  0
  3  7  1  0  0  0  0
  3  8  1  0  0  0  0
  3 26  1  0  0  0  0
  4 14  1  0  0  0  0
  4 17  1  0  0  0  0
  4 42  1  0  0  0  0
  5 19  2  0  0  0  0
  5 23  1  0  0  0  0
  6  9  1  0  0  0  0
  6 27  1  0  0  0  0
  6 28  1  0  0  0  0
  7 10  1  0  0  0  0
  7 29  1  0  0  0  0
  7 30  1  0  0  0  0
  8 11  1  0  0  0  0
  8 31  1  0  0  0  0
  8 32  1  0  0  0  0
  9 12  1  0  0  0  0
  9 13  2  0  0  0  0
 10 33  1  0  0  0  0
 10 34  1  0  0  0  0
 10 35  1  0  0  0  0
 11 36  1  0  0  0  0
 11 37  1  0  0  0  0
 11 38  1  0  0  0  0
 12 14  2  0  0  0  0
 12 39  1  0  0  0  0
 13 15  1  0  0  0  0
 14 16  1  0  0  0  0
 15 16  2  0  0  0  0
 15 40  1  0  0  0  0
 16 41  1  0  0  0  0
 17 18  2  0  0  0  0
 17 20  1  0  0  0  0
 18 19  1  0  0  0  0
 18 21  1  0  0  0  0
 19 22  1  0  0  0  0
 20 23  2  0  0  0  0
 20 44  1  0  0  0  0
 21 24  2  0  0  0  0
 21 45  1  0  0  0  0
 22 25  2  0  0  0  0
 22 46  1  0  0  0  0
 23 47  1  0  0  0  0
 24 25  1  0  0  0  0
 24 48  1  0  0  0  0
M  CHG  1   3   1
M  END
> <PUBCHEM_COMPOUND_ID_TYPE>
0

> <PUBCHEM_TOTAL_CHARGE>
1

> <PUBCHEM_SUBSTANCE_ID>
170485014

> <PUBCHEM_SUBSTANCE_VERSION>
1

> <PUBCHEM_EXT_DATASOURCE_NAME>
Shanghai Institute of Organic Chemistry

> <PUBCHEM_EXT_DATASOURCE_REGID>
4fgz

> <PUBCHEM_SUBSTANCE_COMMENT>
PDB code 4fgz, binding affinity data from PDBbind-CN database: IC50=1350uM

> <PUBCHEM_SUBSTANCE_SYNONYM>
4fgz

> <PUBCHEM_XREF_EXT_ID>
4fgz

> <PUBCHEM_EXT_DATASOURCE_URL>
http://www.sioc-ccbg.ac.cn/

> <PUBCHEM_EXT_SUBSTANCE_URL>
http://www.pdbbind-cn.org/quickpdb.asp?quickpdb=4fgz

> <PUBCHEM_CID_ASSOCIATIONS>
6957671  1
2165  2

> <PUBCHEM_CONFORMER_ID>
0A29651600010001

> <PUBCHEM_COORDINATE_TYPE>
2
3
4

$$$$
170485005
  -OEChem-11262106393D

 40 43  0     0  0  0  0  0  0999 V2000
   17.7450  -10.9990  -35.1970 Cl  0  0  0  0  0  0  0  0  0  0  0  0
   22.8560  -14.1960  -37.6620 O   0  0  0  0  0  0  0  0  0  0  0  0
   20.4520   -9.9620  -38.7680 O   0  0  0  0  0  0  0  0  0  0  0  0
   20.8670  -11.5040  -34.2900 N   0  0  0  0  0  0  0  0  0  0  0  0
   20.2600  -10.8740  -32.2410 N   0  0  0  0  0  0  0  0  0  0  0  0
   22.0390  -13.5480  -33.8570 N   0  0  0  0  0  0  0  0  0  0  0  0
   22.2950  -13.7470  -35.0730 N   0  0  0  0  0  0  0  0  0  0  0  0
   21.1110  -11.6600  -35.6720 C   0  0  0  0  0  0  0  0  0  0  0  0
   20.2100  -10.5450  -33.5220 C   0  0  0  0  0  0  0  0  0  0  0  0
   21.3450  -12.4640  -33.4220 C   0  0  0  0  0  0  0  0  0  0  0  0
   21.8440  -12.8130  -36.0430 C   0  0  0  0  0  0  0  0  0  0  0  0
   20.9560  -12.0520  -32.1650 C   0  0  0  0  0  0  0  0  0  0  0  0
   19.5330   -9.3360  -33.9910 C   0  0  0  0  0  0  0  0  0  0  0  0
   20.6810  -10.7560  -36.6380 C   0  0  0  0  0  0  0  0  0  0  0  0
   22.1360  -13.0410  -37.4070 C   0  0  0  0  0  0  0  0  0  0  0  0
   20.9660  -10.9680  -37.9870 C   0  0  0  0  0  0  0  0  0  0  0  0
   21.6890  -12.1130  -38.3750 C   0  0  0  0  0  0  0  0  0  0  0  0
   21.2100  -12.7090  -30.8710 C   0  0  0  0  0  0  0  0  0  0  0  0
   18.3680   -9.4360  -34.7710 C   0  0  0  0  0  0  0  0  0  0  0  0
   20.0210   -8.0580  -33.6560 C   0  0  0  0  0  0  0  0  0  0  0  0
   17.7040   -8.2840  -35.2250 C   0  0  0  0  0  0  0  0  0  0  0  0
   19.3590   -6.9090  -34.1100 C   0  0  0  0  0  0  0  0  0  0  0  0
   18.2040   -7.0200  -34.8930 C   0  0  0  0  0  0  0  0  0  0  0  0
   23.5150  -14.3730  -38.9160 C   0  0  0  0  0  0  0  0  0  0  0  0
   20.7630   -9.9050  -40.1540 C   0  0  0  0  0  0  0  0  0  0  0  0
   20.1159   -9.8735  -36.3379 H   0  0  0  0  0  0  0  0  0  0  0  0
   21.9053  -12.2846  -39.4294 H   0  0  0  0  0  0  0  0  0  0  0  0
   20.7686  -13.7056  -30.8781 H   0  0  0  0  0  0  0  0  0  0  0  0
   22.2851  -12.7876  -30.7097 H   0  0  0  0  0  0  0  0  0  0  0  0
   20.7635  -12.1182  -30.0712 H   0  0  0  0  0  0  0  0  0  0  0  0
   20.9163   -7.9622  -33.0417 H   0  0  0  0  0  0  0  0  0  0  0  0
   16.8038   -8.3745  -35.8329 H   0  0  0  0  0  0  0  0  0  0  0  0
   19.7458   -5.9232  -33.8518 H   0  0  0  0  0  0  0  0  0  0  0  0
   17.6945   -6.1225  -35.2438 H   0  0  0  0  0  0  0  0  0  0  0  0
   22.7790  -14.3419  -39.7194 H   0  0  0  0  0  0  0  0  0  0  0  0
   24.2436  -13.5749  -39.0579 H   0  0  0  0  0  0  0  0  0  0  0  0
   24.0238  -15.3369  -38.9248 H   0  0  0  0  0  0  0  0  0  0  0  0
   21.8416   -9.8102  -40.2794 H   0  0  0  0  0  0  0  0  0  0  0  0
   20.4182  -10.8176  -40.6403 H   0  0  0  0  0  0  0  0  0  0  0  0
   20.2668   -9.0437  -40.6013 H   0  0  0  0  0  0  0  0  0  0  0  0
  1 19  1  0  0  0  0
  2 15  1  0  0  0  0
  2 24  1  0  0  0  0
  3 16  1  0  0  0  0
  3 25  1  0  0  0  0
  4  8  1  0  0  0  0
  4  9  1  0  0  0  0
  4 10  1  0  0  0  0
  5  9  2  0  0  0  0
  5 12  1  0  0  0  0
  6  7  2  0  0  0  0
  6 10  1  0  0  0  0
  7 11  1  0  0  0  0
  8 11  1  0  0  0  0
  8 14  2  0  0  0  0
  9 13  1  0  0  0  0
 10 12  2  0  0  0  0
 11 15  2  0  0  0  0
 12 18  1  0  0  0  0
 13 19  2  0  0  0  0
 13 20  1  0  0  0  0
 14 16  1  0  0  0  0
 14 26  1  0  0  0  0
 15 17  1  0  0  0  0
 16 17  2  0  0  0  0
 17 27  1  0  0  0  0
 18 28  1  0  0  0  0
 18 29  1  0  0  0  0
 18 30  1  0  0  0  0
 19 21  1  0  0  0  0
 20 22  2  0  0  0  0
 20 31  1  0  0  0  0
 21 23  2  0  0  0  0
 21 32  1  0  0  0  0
 22 23  1  0  0  0  0
 22 33  1  0  0  0  0
 23 34  1  0  0  0  0
 24 35  1  0  0  0  0
 24 36  1  0  0  0  0
 24 37  1  0  0  0  0
 25 38  1  0  0  0  0
 25 39  1  0  0  0  0
 25 40  1  0  0  0  0
M  END
> <PUBCHEM_COMPOUND_ID_TYPE>
0

> <PUBCHEM_TOTAL_CHARGE>
0

> <PUBCHEM_SUBSTANCE_ID>
170485005

> <PUBCHEM_SUBSTANCE_VERSION>
1

> <PUBCHEM_EXT_DATASOURCE_NAME>
Shanghai Institute of Organic Chemistry

> <PUBCHEM_EXT_DATASOURCE_REGID>
4fcd

> <PUBCHEM_SUBSTANCE_COMMENT>
PDB code 4fcd, binding affinity data from PDBbind-CN database: IC50=0.28nM

> <PUBCHEM_SUBSTANCE_SYNONYM>
4fcd

> <PUBCHEM_XREF_EXT_ID>
4fcd

> <PUBCHEM_EXT_DATASOURCE_URL>
http://www.sioc-ccbg.ac.cn/

> <PUBCHEM_EXT_SUBSTANCE_URL>
http://www.pdbbind-cn.org/quickpdb.asp?quickpdb=4fcd

> <PUBCHEM_CID_ASSOCIATIONS>
60150358  1

> <PUBCHEM_CONFORMER_ID>
0A29650D00010001

> <PUBCHEM_COORDINATE_TYPE>
2
3
4

$$$$
170485004
  -OEChem-11262106393D

 54 58  0     0  0  0  0  0  0999 V2000
   21.6040  -14.2540  -39.3680 O   0  0  0  0  0  0  0  0  0  0  0  0
   20.3290  -12.1910  -34.2940 N   0  0  0  0  0  0  0  0  0  0  0  0
   19.6640  -11.0670  -32.4880 N   0  0  0  0  0  0  0  0  0  0  0  0
   21.6670  -14.6620  -34.5320 N   0  0  0  0  0  0  0  0  0  0  0  0
   21.7590  -17.2090  -40.5530 N   0  0  0  0  0  0  0  0  0  0  0  0
   20.6970  -12.9540  -33.1750 C   0  0  0  0  0  0  0  0  0  0  0  0
   19.7040  -11.0500  -33.8050 C   0  0  0  0  0  0  0  0  0  0  0  0
   20.6270  -12.6660  -35.6070 C   0  0  0  0  0  0  0  0  0  0  0  0
   19.1130   -9.9130  -34.5660 C   0  0  0  0  0  0  0  0  0  0  0  0
   20.2700  -12.2240  -32.0810 C   0  0  0  0  0  0  0  0  0  0  0  0
   21.3890  -14.2230  -33.3460 C   0  0  0  0  0  0  0  0  0  0  0  0
   21.2980  -13.9090  -35.6710 C   0  0  0  0  0  0  0  0  0  0  0  0
   17.6580  -10.2310  -34.9150 C   0  0  0  0  0  0  0  0  0  0  0  0
   20.3140  -12.0020  -36.7960 C   0  0  0  0  0  0  0  0  0  0  0  0
   21.6360  -14.4640  -36.9170 C   0  0  0  0  0  0  0  0  0  0  0  0
   20.3680  -12.4840  -30.6310 C   0  0  0  0  0  0  0  0  0  0  0  0
   21.8260  -15.1040  -32.2090 C   0  0  0  0  0  0  0  0  0  0  0  0
   21.3250  -13.7990  -38.1050 C   0  0  0  0  0  0  0  0  0  0  0  0
   20.6630  -12.5640  -38.0340 C   0  0  0  0  0  0  0  0  0  0  0  0
   17.2610   -9.6020  -36.2400 C   0  0  0  0  0  0  0  0  0  0  0  0
   22.6720  -15.2010  -39.4860 C   0  0  0  0  0  0  0  0  0  0  0  0
   22.4320  -16.0350  -40.7110 C   0  0  0  0  0  0  0  0  0  0  0  0
   21.9670  -17.5950  -42.9380 C   0  0  0  0  0  0  0  0  0  0  0  0
   21.5300  -17.9790  -41.6420 C   0  0  0  0  0  0  0  0  0  0  0  0
   22.8950  -15.5890  -41.9450 C   0  0  0  0  0  0  0  0  0  0  0  0
   22.6580  -16.3800  -43.0680 C   0  0  0  0  0  0  0  0  0  0  0  0
   21.7130  -18.4200  -44.0520 C   0  0  0  0  0  0  0  0  0  0  0  0
   20.8490  -19.1880  -41.5160 C   0  0  0  0  0  0  0  0  0  0  0  0
   21.0250  -19.6240  -43.8890 C   0  0  0  0  0  0  0  0  0  0  0  0
   20.5920  -20.0080  -42.6240 C   0  0  0  0  0  0  0  0  0  0  0  0
   19.1514   -9.0017  -33.9512 H   0  0  0  0  0  0  0  0  0  0  0  0
   19.6856   -9.7551  -35.4919 H   0  0  0  0  0  0  0  0  0  0  0  0
   17.5359  -11.3220  -34.9848 H   0  0  0  0  0  0  0  0  0  0  0  0
   17.0048   -9.8389  -34.1216 H   0  0  0  0  0  0  0  0  0  0  0  0
   19.7993  -11.0486  -36.7622 H   0  0  0  0  0  0  0  0  0  0  0  0
   22.1446  -15.4205  -36.9565 H   0  0  0  0  0  0  0  0  0  0  0  0
   20.8763  -13.4452  -30.4644 H   0  0  0  0  0  0  0  0  0  0  0  0
   19.3583  -12.5230  -30.1964 H   0  0  0  0  0  0  0  0  0  0  0  0
   20.9425  -11.6776  -30.1519 H   0  0  0  0  0  0  0  0  0  0  0  0
   22.3239  -15.9994  -32.6094 H   0  0  0  0  0  0  0  0  0  0  0  0
   20.9472  -15.4056  -31.6201 H   0  0  0  0  0  0  0  0  0  0  0  0
   22.5266  -14.5517  -31.5655 H   0  0  0  0  0  0  0  0  0  0  0  0
   20.4175  -12.0362  -38.9484 H   0  0  0  0  0  0  0  0  0  0  0  0
   16.2123   -9.8479  -36.4629 H   0  0  0  0  0  0  0  0  0  0  0  0
   17.9072   -9.9929  -37.0397 H   0  0  0  0  0  0  0  0  0  0  0  0
   17.3760   -8.5099  -36.1765 H   0  0  0  0  0  0  0  0  0  0  0  0
   22.6961  -15.8467  -38.5958 H   0  0  0  0  0  0  0  0  0  0  0  0
   23.6308  -14.6700  -39.5800 H   0  0  0  0  0  0  0  0  0  0  0  0
   23.4274  -14.6487  -42.0310 H   0  0  0  0  0  0  0  0  0  0  0  0
   23.0074  -16.0568  -44.0419 H   0  0  0  0  0  0  0  0  0  0  0  0
   22.0522  -18.1194  -45.0367 H   0  0  0  0  0  0  0  0  0  0  0  0
   20.5091  -19.5028  -40.5360 H   0  0  0  0  0  0  0  0  0  0  0  0
   20.8287  -20.2580  -44.7461 H   0  0  0  0  0  0  0  0  0  0  0  0
   20.0559  -20.9412  -42.4948 H   0  0  0  0  0  0  0  0  0  0  0  0
  1 18  1  0  0  0  0
  1 21  1  0  0  0  0
  2  6  1  0  0  0  0
  2  7  1  0  0  0  0
  2  8  1  0  0  0  0
  3  7  2  0  0  0  0
  3 10  1  0  0  0  0
  4 11  2  0  0  0  0
  4 12  1  0  0  0  0
  5 22  2  0  0  0  0
  5 24  1  0  0  0  0
  6 10  2  0  0  0  0
  6 11  1  0  0  0  0
  7  9  1  0  0  0  0
  8 12  2  0  0  0  0
  8 14  1  0  0  0  0
  9 13  1  0  0  0  0
  9 31  1  0  0  0  0
  9 32  1  0  0  0  0
 10 16  1  0  0  0  0
 11 17  1  0  0  0  0
 12 15  1  0  0  0  0
 13 20  1  0  0  0  0
 13 33  1  0  0  0  0
 13 34  1  0  0  0  0
 14 19  2  0  0  0  0
 14 35  1  0  0  0  0
 15 18  2  0  0  0  0
 15 36  1  0  0  0  0
 16 37  1  0  0  0  0
 16 38  1  0  0  0  0
 16 39  1  0  0  0  0
 17 40  1  0  0  0  0
 17 41  1  0  0  0  0
 17 42  1  0  0  0  0
 18 19  1  0  0  0  0
 19 43  1  0  0  0  0
 20 44  1  0  0  0  0
 20 45  1  0  0  0  0
 20 46  1  0  0  0  0
 21 22  1  0  0  0  0
 21 47  1  0  0  0  0
 21 48  1  0  0  0  0
 22 25  1  0  0  0  0
 23 24  2  0  0  0  0
 23 26  1  0  0  0  0
 23 27  1  0  0  0  0
 24 28  1  0  0  0  0
 25 26  2  0  0  0  0
 25 49  1  0  0  0  0
 26 50  1  0  0  0  0
 27 29  2  0  0  0  0
 27 51  1  0  0  0  0
 28 30  2  0  0  0  0
 28 52  1  0  0  0  0
 29 30  1  0  0  0  0
 29 53  1  0  0  0  0
 30 54  1  0  0  0  0
M  END
> <PUBCHEM_COMPOUND_ID_TYPE>
0

> <PUBCHEM_TOTAL_CHARGE>
0

> <PUBCHEM_SUBSTANCE_ID>
170485004

> <PUBCHEM_SUBSTANCE_VERSION>
1

> <PUBCHEM_EXT_DATASOURCE_NAME>
Shanghai Institute of Organic Chemistry

> <PUBCHEM_EXT_DATASOURCE_REGID>
4fcb

> <PUBCHEM_SUBSTANCE_COMMENT>
PDB code 4fcb, binding affinity data from PDBbind-CN database: IC50=2.9nM

> <PUBCHEM_SUBSTANCE_SYNONYM>
4fcb

> <PUBCHEM_XREF_EXT_ID>
4fcb

> <PUBCHEM_EXT_DATASOURCE_URL>
http://www.sioc-ccbg.ac.cn/

> <PUBCHEM_EXT_SUBSTANCE_URL>
http://www.pdbbind-cn.org/quickpdb.asp?quickpdb=4fcb

> <PUBCHEM_CID_ASSOCIATIONS>
57732460  1

> <PUBCHEM_CONFORMER_ID>
0A29650C00010001

> <PUBCHEM_COORDINATE_TYPE>
2
3
4

$$$$
170484997
  -OEChem-11262106393D

 33 34  0     1  0  0  0  0  0999 V2000
   18.0480  -17.9030   25.6710 Cl  0  0  0  0  0  0  0  0  0  0  0  0
   17.1450  -12.2810   25.9970 O   0  0  0  0  0  0  0  0  0  0  0  0
   18.4440  -14.4290   26.9600 N   0  3  0  0  0  0  0  0  0  0  0  0
   17.3780  -14.7130   26.0180 C   0  0  1  0  0  0  0  0  0  0  0  0
   16.4330  -15.7540   26.7590 C   0  0  0  0  0  0  0  0  0  0  0  0
   14.9370  -15.7550   26.3370 C   0  0  0  0  0  0  0  0  0  0  0  0
   16.6390  -13.3660   25.7790 C   0  0  0  0  0  0  0  0  0  0  0  0
   14.3820  -14.3170   26.3040 C   0  0  0  0  0  0  0  0  0  0  0  0
   15.2190  -13.5020   25.2770 C   0  0  0  0  0  0  0  0  0  0  0  0
   18.0410  -15.2350   24.6960 C   0  0  0  0  0  0  0  0  0  0  0  0
   18.1340  -14.1240   28.3500 C   0  0  0  0  0  0  0  0  0  0  0  0
   18.3710  -16.5810   24.4510 C   0  0  0  0  0  0  0  0  0  0  0  0
   18.3510  -14.3100   23.6900 C   0  0  0  0  0  0  0  0  0  0  0  0
   18.9590  -16.9600   23.2510 C   0  0  0  0  0  0  0  0  0  0  0  0
   18.9420  -14.7160   22.4970 C   0  0  0  0  0  0  0  0  0  0  0  0
   19.2480  -16.0430   22.2610 C   0  0  0  0  0  0  0  0  0  0  0  0
   16.8179  -16.7425   26.5086 H   0  0  0  0  0  0  0  0  0  0  0  0
   16.4490  -15.4787   27.8135 H   0  0  0  0  0  0  0  0  0  0  0  0
   14.8511  -16.1898   25.3412 H   0  0  0  0  0  0  0  0  0  0  0  0
   14.3663  -16.3375   27.0602 H   0  0  0  0  0  0  0  0  0  0  0  0
   18.8752  -13.5759   26.6041 H   0  0  0  0  0  0  0  0  0  0  0  0
   18.9794  -15.2960   27.0048 H   0  0  0  0  0  0  0  0  0  0  0  0
   13.3319  -14.3253   26.0119 H   0  0  0  0  0  0  0  0  0  0  0  0
   14.4532  -13.8632   27.2925 H   0  0  0  0  0  0  0  0  0  0  0  0
   15.2207  -14.0192   24.3175 H   0  0  0  0  0  0  0  0  0  0  0  0
   14.7803  -12.5117   25.1550 H   0  0  0  0  0  0  0  0  0  0  0  0
   17.5031  -13.2362   28.3939 H   0  0  0  0  0  0  0  0  0  0  0  0
   17.6080  -14.9675   28.7971 H   0  0  0  0  0  0  0  0  0  0  0  0
   19.0597  -13.9408   28.8956 H   0  0  0  0  0  0  0  0  0  0  0  0
   18.1255  -13.2548   23.8444 H   0  0  0  0  0  0  0  0  0  0  0  0
   19.1987  -18.0105   23.0868 H   0  0  0  0  0  0  0  0  0  0  0  0
   19.1682  -13.9721   21.7331 H   0  0  0  0  0  0  0  0  0  0  0  0
   19.7037  -16.3557   21.3215 H   0  0  0  0  0  0  0  0  0  0  0  0
  1 12  1  0  0  0  0
  2  7  2  0  0  0  0
  3  4  1  0  0  0  0
  3 11  1  0  0  0  0
  3 21  1  0  0  0  0
  3 22  1  0  0  0  0
  4  5  1  0  0  0  0
  4  7  1  0  0  0  0
  4 10  1  0  0  0  0
  5  6  1  0  0  0  0
  5 17  1  0  0  0  0
  5 18  1  0  0  0  0
  6  8  1  0  0  0  0
  6 19  1  0  0  0  0
  6 20  1  0  0  0  0
  7  9  1  0  0  0  0
  8  9  1  0  0  0  0
  8 23  1  0  0  0  0
  8 24  1  0  0  0  0
  9 25  1  0  0  0  0
  9 26  1  0  0  0  0
 10 12  2  0  0  0  0
 10 13  1  0  0  0  0
 11 27  1  0  0  0  0
 11 28  1  0  0  0  0
 11 29  1  0  0  0  0
 12 14  1  0  0  0  0
 13 15  2  0  0  0  0
 13 30  1  0  0  0  0
 14 16  2  0  0  0  0
 14 31  1  0  0  0  0
 15 16  1  0  0  0  0
 15 32  1  0  0  0  0
 16 33  1  0  0  0  0
M  CHG  1   3   1
M  END
> <PUBCHEM_COMPOUND_ID_TYPE>
0

> <PUBCHEM_TOTAL_CHARGE>
1

> <PUBCHEM_SUBSTANCE_ID>
170484997

> <PUBCHEM_SUBSTANCE_VERSION>
1

> <PUBCHEM_EXT_DATASOURCE_NAME>
Shanghai Institute of Organic Chemistry

> <PUBCHEM_EXT_DATASOURCE_REGID>
4f8h

> <PUBCHEM_SUBSTANCE_COMMENT>
PDB code 4f8h, binding affinity data from PDBbind-CN database: IC50=58uM

> <PUBCHEM_SUBSTANCE_SYNONYM>
4f8h

> <PUBCHEM_XREF_EXT_ID>
4f8h

> <PUBCHEM_EXT_DATASOURCE_URL>
http://www.sioc-ccbg.ac.cn/

> <PUBCHEM_EXT_SUBSTANCE_URL>
http://www.pdbbind-cn.org/quickpdb.asp?quickpdb=4f8h

> <PUBCHEM_CID_ASSOCIATIONS>
6919038  1
644025  2

> <PUBCHEM_CONFORMER_ID>
0A29650500010001

> <PUBCHEM_COORDINATE_TYPE>
2
3
4

$$$$
170484995
  -OEChem-11262106393D

 47 48  0     0  0  0  0  0  0999 V2000
  -23.9710   15.6010    7.8560 O   0  0  0  0  0  0  0  0  0  0  0  0
  -24.3330    9.3130    5.0440 O   0  0  0  0  0  0  0  0  0  0  0  0
  -23.0040    6.6910    8.6430 O   0  0  0  0  0  0  0  0  0  0  0  0
  -25.0550    6.9200    5.1390 O   0  5  0  0  0  0  0  0  0  0  0  0
  -25.0520    6.0660    7.1780 O   0  0  0  0  0  0  0  0  0  0  0  0
  -22.7590   10.1940    6.4280 N   0  0  0  0  0  0  0  0  0  0  0  0
  -23.3000   19.1700    6.9160 C   0  0  0  0  0  0  0  0  0  0  0  0
  -22.6650   20.3320    7.6770 C   0  0  0  0  0  0  0  0  0  0  0  0
  -23.3100   17.9010    7.7620 C   0  0  0  0  0  0  0  0  0  0  0  0
  -23.7200   21.3360    8.1380 C   0  0  0  0  0  0  0  0  0  0  0  0
  -23.9580   16.7470    7.0030 C   0  0  0  0  0  0  0  0  0  0  0  0
  -22.6650   11.4360    5.6260 C   0  0  0  0  0  0  0  0  0  0  0  0
  -23.7280   12.4490    6.0410 C   0  0  0  0  0  0  0  0  0  0  0  0
  -24.3280   14.5020    7.1420 C   0  0  0  0  0  0  0  0  0  0  0  0
  -23.3210   22.7610    7.7520 C   0  0  0  0  0  0  0  0  0  0  0  0
  -23.3650   13.5740    6.7660 C   0  0  0  0  0  0  0  0  0  0  0  0
  -25.0530   12.2530    5.6860 C   0  0  0  0  0  0  0  0  0  0  0  0
  -25.6540   14.3030    6.7910 C   0  0  0  0  0  0  0  0  0  0  0  0
  -23.6310    9.1750    6.0410 C   0  0  0  0  0  0  0  0  0  0  0  0
  -26.0150   13.1780    6.0640 C   0  0  0  0  0  0  0  0  0  0  0  0
  -21.9630   10.0220    7.5640 C   0  0  0  0  0  0  0  0  0  0  0  0
  -23.7190    8.0040    6.7830 C   0  0  0  0  0  0  0  0  0  0  0  0
  -22.0500    8.8460    8.3030 C   0  0  0  0  0  0  0  0  0  0  0  0
  -22.9270    7.8370    7.9140 C   0  0  0  0  0  0  0  0  0  0  0  0
  -24.6860    6.9090    6.3340 C   0  0  0  0  0  0  0  0  0  0  0  0
  -22.7244   18.9848    5.9971 H   0  0  0  0  0  0  0  0  0  0  0  0
  -24.3348   19.4350    6.6534 H   0  0  0  0  0  0  0  0  0  0  0  0
  -22.1367   19.9376    8.5575 H   0  0  0  0  0  0  0  0  0  0  0  0
  -21.9480   20.8429    7.0176 H   0  0  0  0  0  0  0  0  0  0  0  0
  -23.8771   18.0882    8.6858 H   0  0  0  0  0  0  0  0  0  0  0  0
  -22.2749   17.6290    8.0159 H   0  0  0  0  0  0  0  0  0  0  0  0
  -24.6822   21.0905    7.6648 H   0  0  0  0  0  0  0  0  0  0  0  0
  -23.8228   21.2742    9.2314 H   0  0  0  0  0  0  0  0  0  0  0  0
  -23.3787   16.5276    6.0940 H   0  0  0  0  0  0  0  0  0  0  0  0
  -24.9879   17.0159    6.7255 H   0  0  0  0  0  0  0  0  0  0  0  0
  -21.6699   11.8815    5.7717 H   0  0  0  0  0  0  0  0  0  0  0  0
  -22.8033   11.1871    4.5635 H   0  0  0  0  0  0  0  0  0  0  0  0
  -24.0949   23.4638    8.0941 H   0  0  0  0  0  0  0  0  0  0  0  0
  -23.2203   22.8302    6.6588 H   0  0  0  0  0  0  0  0  0  0  0  0
  -22.3609   23.0140    8.2255 H   0  0  0  0  0  0  0  0  0  0  0  0
  -22.3278   13.7296    7.0399 H   0  0  0  0  0  0  0  0  0  0  0  0
  -25.3375   11.3776    5.1134 H   0  0  0  0  0  0  0  0  0  0  0  0
  -26.4075   15.0251    7.0840 H   0  0  0  0  0  0  0  0  0  0  0  0
  -21.2748   10.8082    7.8708 H   0  0  0  0  0  0  0  0  0  0  0  0
  -27.0522   13.0213    5.7905 H   0  0  0  0  0  0  0  0  0  0  0  0
  -21.4300    8.7145    9.1886 H   0  0  0  0  0  0  0  0  0  0  0  0
  -23.6430    6.1088    8.2491 H   0  0  0  0  0  0  0  0  0  0  0  0
  1 11  1  0  0  0  0
  1 14  1  0  0  0  0
  2 19  2  0  0  0  0
  3 24  1  0  0  0  0
  3 47  1  0  0  0  0
  4 25  1  0  0  0  0
  5 25  2  0  0  0  0
  6 12  1  0  0  0  0
  6 19  1  0  0  0  0
  6 21  1  0  0  0  0
  7  8  1  0  0  0  0
  7  9  1  0  0  0  0
  7 26  1  0  0  0  0
  7 27  1  0  0  0  0
  8 10  1  0  0  0  0
  8 28  1  0  0  0  0
  8 29  1  0  0  0  0
  9 11  1  0  0  0  0
  9 30  1  0  0  0  0
  9 31  1  0  0  0  0
 10 15  1  0  0  0  0
 10 32  1  0  0  0  0
 10 33  1  0  0  0  0
 11 34  1  0  0  0  0
 11 35  1  0  0  0  0
 12 13  1  0  0  0  0
 12 36  1  0  0  0  0
 12 37  1  0  0  0  0
 13 16  1  0  0  0  0
 13 17  2  0  0  0  0
 14 16  2  0  0  0  0
 14 18  1  0  0  0  0
 15 38  1  0  0  0  0
 15 39  1  0  0  0  0
 15 40  1  0  0  0  0
 16 41  1  0  0  0  0
 17 20  1  0  0  0  0
 17 42  1  0  0  0  0
 18 20  2  0  0  0  0
 18 43  1  0  0  0  0
 19 22  1  0  0  0  0
 20 45  1  0  0  0  0
 21 23  2  0  0  0  0
 21 44  1  0  0  0  0
 22 24  2  0  0  0  0
 22 25  1  0  0  0  0
 23 24  1  0  0  0  0
 23 46  1  0  0  0  0
M  CHG  1   4  -1
M  END
> <PUBCHEM_COMPOUND_ID_TYPE>
0

> <PUBCHEM_TOTAL_CHARGE>
-1

> <PUBCHEM_SUBSTANCE_ID>
170484995

> <PUBCHEM_SUBSTANCE_VERSION>
1

> <PUBCHEM_EXT_DATASOURCE_NAME>
Shanghai Institute of Organic Chemistry

> <PUBCHEM_EXT_DATASOURCE_REGID>
4f6x

> <PUBCHEM_SUBSTANCE_COMMENT>
PDB code 4f6x, binding affinity data from PDBbind-CN database: IC50=8.2uM

> <PUBCHEM_SUBSTANCE_SYNONYM>
4f6x

> <PUBCHEM_XREF_EXT_ID>
4f6x

> <PUBCHEM_EXT_DATASOURCE_URL>
http://www.sioc-ccbg.ac.cn/

> <PUBCHEM_EXT_SUBSTANCE_URL>
http://www.pdbbind-cn.org/quickpdb.asp?quickpdb=4f6x

> <PUBCHEM_CID_ASSOCIATIONS>
72200936  1
57336498  2

> <PUBCHEM_CONFORMER_ID>
0A29650300010001

> <PUBCHEM_COORDINATE_TYPE>
2
3
4

$$$$
170484994
  -OEChem-11262106393D

 43 44  0     0  0  0  0  0  0999 V2000
   26.8050  -13.7150    9.1670 O   0  0  0  0  0  0  0  0  0  0  0  0
   26.1080   -7.1770    4.8260 O   0  0  0  0  0  0  0  0  0  0  0  0
   24.8290   -5.2890    5.1000 O   0  0  0  0  0  0  0  0  0  0  0  0
   23.1220   -4.9850    8.0820 O   0  5  0  0  0  0  0  0  0  0  0  0
   23.3830   -3.8290    6.2680 O   0  0  0  0  0  0  0  0  0  0  0  0
   26.3430   -8.7730    6.2580 N   0  0  0  0  0  0  0  0  0  0  0  0
   28.6020   -9.2970    6.0410 C   0  0  0  0  0  0  0  0  0  0  0  0
   29.3290  -10.5420    6.5320 C   0  0  0  0  0  0  0  0  0  0  0  0
   27.2360   -9.5820    5.4410 C   0  0  0  0  0  0  0  0  0  0  0  0
   28.7550  -11.0090    7.8330 C   0  0  0  0  0  0  0  0  0  0  0  0
   28.0260  -12.1640    7.9190 C   0  0  0  0  0  0  0  0  0  0  0  0
   28.9560  -10.2450    8.9470 C   0  0  0  0  0  0  0  0  0  0  0  0
   27.5150  -12.5660    9.1400 C   0  0  0  0  0  0  0  0  0  0  0  0
   28.4540  -10.6370   10.1600 C   0  0  0  0  0  0  0  0  0  0  0  0
   27.7230  -11.7920   10.2680 C   0  0  0  0  0  0  0  0  0  0  0  0
   25.8320   -7.6000    5.9180 C   0  0  0  0  0  0  0  0  0  0  0  0
   25.0240   -6.9120    6.7480 C   0  0  0  0  0  0  0  0  0  0  0  0
   26.3220  -14.4220   10.2230 C   0  0  0  0  0  0  0  0  0  0  0  0
   24.5320   -5.7340    6.3050 C   0  0  0  0  0  0  0  0  0  0  0  0
   24.9680  -14.4500   10.4270 C   0  0  0  0  0  0  0  0  0  0  0  0
   27.1230  -15.1670   11.0490 C   0  0  0  0  0  0  0  0  0  0  0  0
   24.4010  -15.1820   11.4420 C   0  0  0  0  0  0  0  0  0  0  0  0
   26.5640  -15.9240   12.0510 C   0  0  0  0  0  0  0  0  0  0  0  0
   25.2010  -15.9270   12.2540 C   0  0  0  0  0  0  0  0  0  0  0  0
   23.6380   -4.8070    6.9630 C   0  0  0  0  0  0  0  0  0  0  0  0
   28.4495   -8.6481    6.9034 H   0  0  0  0  0  0  0  0  0  0  0  0
   29.2145   -8.8504    5.2578 H   0  0  0  0  0  0  0  0  0  0  0  0
   30.3823  -10.3017    6.6768 H   0  0  0  0  0  0  0  0  0  0  0  0
   29.2140  -11.3332    5.7911 H   0  0  0  0  0  0  0  0  0  0  0  0
   26.9801  -10.6414    5.4584 H   0  0  0  0  0  0  0  0  0  0  0  0
   27.1802   -9.3328    4.3813 H   0  0  0  0  0  0  0  0  0  0  0  0
   27.8485  -12.7657    7.0276 H   0  0  0  0  0  0  0  0  0  0  0  0
   29.5205   -9.3157    8.8704 H   0  0  0  0  0  0  0  0  0  0  0  0
   26.0884   -9.1428    7.1739 H   0  0  0  0  0  0  0  0  0  0  0  0
   28.6368  -10.0270   11.0446 H   0  0  0  0  0  0  0  0  0  0  0  0
   27.3110  -12.0966   11.2301 H   0  0  0  0  0  0  0  0  0  0  0  0
   25.6355   -6.6667    7.6163 H   0  0  0  0  0  0  0  0  0  0  0  0
   24.1556   -7.5509    6.9086 H   0  0  0  0  0  0  0  0  0  0  0  0
   24.3212  -13.8746    9.7646 H   0  0  0  0  0  0  0  0  0  0  0  0
   28.2042  -15.1591   10.9112 H   0  0  0  0  0  0  0  0  0  0  0  0
   23.3220  -15.1666   11.5957 H   0  0  0  0  0  0  0  0  0  0  0  0
   27.2058  -16.5285   12.6919 H   0  0  0  0  0  0  0  0  0  0  0  0
   24.7667  -16.5210   13.0581 H   0  0  0  0  0  0  0  0  0  0  0  0
  1 13  1  0  0  0  0
  1 18  1  0  0  0  0
  2 16  2  0  0  0  0
  3 19  2  0  0  0  0
  4 25  1  0  0  0  0
  5 25  2  0  0  0  0
  6  9  1  0  0  0  0
  6 16  1  0  0  0  0
  6 34  1  0  0  0  0
  7  8  1  0  0  0  0
  7  9  1  0  0  0  0
  7 26  1  0  0  0  0
  7 27  1  0  0  0  0
  8 10  1  0  0  0  0
  8 28  1  0  0  0  0
  8 29  1  0  0  0  0
  9 30  1  0  0  0  0
  9 31  1  0  0  0  0
 10 11  1  0  0  0  0
 10 12  2  0  0  0  0
 11 13  2  0  0  0  0
 11 32  1  0  0  0  0
 12 14  1  0  0  0  0
 12 33  1  0  0  0  0
 13 15  1  0  0  0  0
 14 15  2  0  0  0  0
 14 35  1  0  0  0  0
 15 36  1  0  0  0  0
 16 17  1  0  0  0  0
 17 19  1  0  0  0  0
 17 37  1  0  0  0  0
 17 38  1  0  0  0  0
 18 20  2  0  0  0  0
 18 21  1  0  0  0  0
 19 25  1  0  0  0  0
 20 22  1  0  0  0  0
 20 39  1  0  0  0  0
 21 23  2  0  0  0  0
 21 40  1  0  0  0  0
 22 24  2  0  0  0  0
 22 41  1  0  0  0  0
 23 24  1  0  0  0  0
 23 42  1  0  0  0  0
 24 43  1  0  0  0  0
M  CHG  1   4  -1
M  END
> <PUBCHEM_COMPOUND_ID_TYPE>
0

> <PUBCHEM_TOTAL_CHARGE>
-1

> <PUBCHEM_SUBSTANCE_ID>
170484994

> <PUBCHEM_SUBSTANCE_VERSION>
1

> <PUBCHEM_EXT_DATASOURCE_NAME>
Shanghai Institute of Organic Chemistry

> <PUBCHEM_EXT_DATASOURCE_REGID>
4f6v

> <PUBCHEM_SUBSTANCE_COMMENT>
PDB code 4f6v, binding affinity data from PDBbind-CN database: IC50=1.6uM

> <PUBCHEM_SUBSTANCE_SYNONYM>
4f6v

> <PUBCHEM_XREF_EXT_ID>
4f6v

> <PUBCHEM_EXT_DATASOURCE_URL>
http://www.sioc-ccbg.ac.cn/

> <PUBCHEM_EXT_SUBSTANCE_URL>
http://www.pdbbind-cn.org/quickpdb.asp?quickpdb=4f6v

> <PUBCHEM_CID_ASSOCIATIONS>
72200934  1
72200935  2

> <PUBCHEM_CONFORMER_ID>
0A29650200010001

> <PUBCHEM_COORDINATE_TYPE>
2
3
4

$$$$
170484834
  -OEChem-11262106393D

 63 67  0     0  0  0  0  0  0999 V2000
  -19.4400   21.0070    0.5950 O   0  0  0  0  0  0  0  0  0  0  0  0
  -28.4830   16.7320   -6.2830 O   0  0  0  0  0  0  0  0  0  0  0  0
  -22.1190   19.6520   -1.1350 N   0  0  0  0  0  0  0  0  0  0  0  0
  -30.2220   18.0400   -5.8430 N   0  0  0  0  0  0  0  0  0  0  0  0
  -32.6960   18.9950   -6.4510 N   0  3  0  0  0  0  0  0  0  0  0  0
  -24.5370   19.1450   -1.3660 N   0  0  0  0  0  0  0  0  0  0  0  0
  -25.6010   18.9050    0.7250 N   0  0  0  0  0  0  0  0  0  0  0  0
  -26.8440   18.6960   -1.2630 N   0  0  0  0  0  0  0  0  0  0  0  0
  -26.7140   18.5130   -4.7860 N   0  0  0  0  0  0  0  0  0  0  0  0
  -19.0770   19.4500   -1.0090 N   0  0  0  0  0  0  0  0  0  0  0  0
  -21.5950   19.7840   -2.5160 C   0  0  0  0  0  0  0  0  0  0  0  0
  -21.8660   18.6090   -3.4270 C   0  0  0  0  0  0  0  0  0  0  0  0
  -22.1620   21.0040   -3.2330 C   0  0  0  0  0  0  0  0  0  0  0  0
  -21.7210   19.2210   -4.8120 C   0  0  0  0  0  0  0  0  0  0  0  0
  -22.1190   20.6780   -4.7110 C   0  0  0  0  0  0  0  0  0  0  0  0
  -23.3700   19.3790   -0.7270 C   0  0  0  0  0  0  0  0  0  0  0  0
  -21.3170   19.7990   -0.0680 C   0  0  0  0  0  0  0  0  0  0  0  0
  -23.3330   19.3700    0.6580 C   0  0  0  0  0  0  0  0  0  0  0  0
  -22.0280   19.6270    1.1250 C   0  0  0  0  0  0  0  0  0  0  0  0
  -30.9520   18.8370   -4.8400 C   0  0  0  0  0  0  0  0  0  0  0  0
  -30.9180   17.5970   -7.0850 C   0  0  0  0  0  0  0  0  0  0  0  0
  -31.9330   19.8060   -5.5170 C   0  0  0  0  0  0  0  0  0  0  0  0
  -31.9550   18.5900   -7.6350 C   0  0  0  0  0  0  0  0  0  0  0  0
  -19.8610   20.1160   -0.1450 C   0  0  0  0  0  0  0  0  0  0  0  0
  -24.4700   19.1350    1.4120 C   0  0  0  0  0  0  0  0  0  0  0  0
  -25.6530   18.9120   -0.6400 C   0  0  0  0  0  0  0  0  0  0  0  0
  -28.9520   17.6340   -5.6190 C   0  0  0  0  0  0  0  0  0  0  0  0
  -27.9890   18.1070   -4.5700 C   0  0  0  0  0  0  0  0  0  0  0  0
  -34.0870   18.6140   -6.1470 C   0  0  0  0  0  0  0  0  0  0  0  0
  -27.0320   18.5610   -2.5950 C   0  0  0  0  0  0  0  0  0  0  0  0
  -28.1950   18.1070   -3.1950 C   0  0  0  0  0  0  0  0  0  0  0  0
  -26.1330   18.8120   -3.6100 C   0  0  0  0  0  0  0  0  0  0  0  0
  -26.0320   18.6660   -6.1040 C   0  0  0  0  0  0  0  0  0  0  0  0
  -20.5210   19.8626   -2.3475 H   0  0  0  0  0  0  0  0  0  0  0  0
  -22.8446   18.1585   -3.2610 H   0  0  0  0  0  0  0  0  0  0  0  0
  -21.1868   17.7735   -3.2576 H   0  0  0  0  0  0  0  0  0  0  0  0
  -21.5807   21.8985   -3.0093 H   0  0  0  0  0  0  0  0  0  0  0  0
  -23.1797   21.2165   -2.9054 H   0  0  0  0  0  0  0  0  0  0  0  0
  -22.3587   18.7008   -5.5268 H   0  0  0  0  0  0  0  0  0  0  0  0
  -20.6928   19.1306   -5.1624 H   0  0  0  0  0  0  0  0  0  0  0  0
  -23.0871   20.8539   -5.1800 H   0  0  0  0  0  0  0  0  0  0  0  0
  -21.4066   21.3166   -5.2332 H   0  0  0  0  0  0  0  0  0  0  0  0
  -21.6657   19.6785    2.1517 H   0  0  0  0  0  0  0  0  0  0  0  0
  -30.2322   19.4152   -4.2607 H   0  0  0  0  0  0  0  0  0  0  0  0
  -31.5154   18.1603   -4.1975 H   0  0  0  0  0  0  0  0  0  0  0  0
  -31.4573   16.6832   -6.8357 H   0  0  0  0  0  0  0  0  0  0  0  0
  -30.1523   17.4830   -7.8523 H   0  0  0  0  0  0  0  0  0  0  0  0
  -31.4088   20.6150   -6.0257 H   0  0  0  0  0  0  0  0  0  0  0  0
  -32.5811   20.2928   -4.7882 H   0  0  0  0  0  0  0  0  0  0  0  0
  -31.4947   19.4336   -8.1494 H   0  0  0  0  0  0  0  0  0  0  0  0
  -32.5951   18.1469   -8.3979 H   0  0  0  0  0  0  0  0  0  0  0  0
  -24.4486   19.1365    2.5018 H   0  0  0  0  0  0  0  0  0  0  0  0
  -34.1105   18.0366   -5.2228 H   0  0  0  0  0  0  0  0  0  0  0  0
  -34.6915   19.5135   -6.0305 H   0  0  0  0  0  0  0  0  0  0  0  0
  -34.4840   18.0111   -6.9637 H   0  0  0  0  0  0  0  0  0  0  0  0
  -27.6712   18.6299   -0.6699 H   0  0  0  0  0  0  0  0  0  0  0  0
  -29.1076   17.8042   -2.6815 H   0  0  0  0  0  0  0  0  0  0  0  0
  -18.0841   19.6742   -1.0738 H   0  0  0  0  0  0  0  0  0  0  0  0
  -19.4747   18.7201   -1.6002 H   0  0  0  0  0  0  0  0  0  0  0  0
  -25.1189   19.1903   -3.4808 H   0  0  0  0  0  0  0  0  0  0  0  0
  -25.7500   19.7092   -6.2468 H   0  0  0  0  0  0  0  0  0  0  0  0
  -25.1393   18.0409   -6.1244 H   0  0  0  0  0  0  0  0  0  0  0  0
  -26.7101   18.3593   -6.9003 H   0  0  0  0  0  0  0  0  0  0  0  0
  1 24  2  0  0  0  0
  2 27  2  0  0  0  0
  3 11  1  0  0  0  0
  3 16  1  0  0  0  0
  3 17  1  0  0  0  0
  4 20  1  0  0  0  0
  4 21  1  0  0  0  0
  4 27  1  0  0  0  0
  5 22  1  0  0  0  0
  5 23  1  0  0  0  0
  5 29  1  0  0  0  0
  6 16  2  0  0  0  0
  6 26  1  0  0  0  0
  7 25  1  0  0  0  0
  7 26  2  0  0  0  0
  8 26  1  0  0  0  0
  8 30  1  0  0  0  0
  8 56  1  0  0  0  0
  9 28  1  0  0  0  0
  9 32  1  0  0  0  0
  9 33  1  0  0  0  0
 10 24  1  0  0  0  0
 10 58  1  0  0  0  0
 10 59  1  0  0  0  0
 11 12  1  0  0  0  0
 11 13  1  0  0  0  0
 11 34  1  0  0  0  0
 12 14  1  0  0  0  0
 12 35  1  0  0  0  0
 12 36  1  0  0  0  0
 13 15  1  0  0  0  0
 13 37  1  0  0  0  0
 13 38  1  0  0  0  0
 14 15  1  0  0  0  0
 14 39  1  0  0  0  0
 14 40  1  0  0  0  0
 15 41  1  0  0  0  0
 15 42  1  0  0  0  0
 16 18  1  0  0  0  0
 17 19  2  0  0  0  0
 17 24  1  0  0  0  0
 18 19  1  0  0  0  0
 18 25  2  0  0  0  0
 19 43  1  0  0  0  0
 20 22  1  0  0  0  0
 20 44  1  0  0  0  0
 20 45  1  0  0  0  0
 21 23  1  0  0  0  0
 21 46  1  0  0  0  0
 21 47  1  0  0  0  0
 22 48  1  0  0  0  0
 22 49  1  0  0  0  0
 23 50  1  0  0  0  0
 23 51  1  0  0  0  0
 25 52  1  0  0  0  0
 27 28  1  0  0  0  0
 28 31  2  0  0  0  0
 29 53  1  0  0  0  0
 29 54  1  0  0  0  0
 29 55  1  0  0  0  0
 30 31  1  0  0  0  0
 30 32  2  0  0  0  0
 31 57  1  0  0  0  0
 32 60  1  0  0  0  0
 33 61  1  0  0  0  0
 33 62  1  0  0  0  0
 33 63  1  0  0  0  0
M  CHG  1   5   1
M  END
> <PUBCHEM_COMPOUND_ID_TYPE>
0

> <PUBCHEM_TOTAL_CHARGE>
1

> <PUBCHEM_SUBSTANCE_ID>
170484834

> <PUBCHEM_SUBSTANCE_VERSION>
1

> <PUBCHEM_EXT_DATASOURCE_NAME>
Shanghai Institute of Organic Chemistry

> <PUBCHEM_EXT_DATASOURCE_REGID>
4dhf

> <PUBCHEM_SUBSTANCE_COMMENT>
PDB code 4dhf, binding affinity data from PDBbind-CN database: IC50=28nM

> <PUBCHEM_SUBSTANCE_SYNONYM>
4dhf

> <PUBCHEM_XREF_EXT_ID>
4dhf

> <PUBCHEM_EXT_DATASOURCE_URL>
http://www.sioc-ccbg.ac.cn/

> <PUBCHEM_EXT_SUBSTANCE_URL>
http://www.pdbbind-cn.org/quickpdb.asp?quickpdb=4dhf

> <PUBCHEM_CID_ASSOCIATIONS>
72200864  1
57383477  2

> <PUBCHEM_CONFORMER_ID>
0A29646200010001

> <PUBCHEM_COORDINATE_TYPE>
2
3
4

$$$$
